15
255_C5H6N2OS_0-2-11-10 (-165,) energy =    -777.0541678
N           1.3547655    -1.2727583     0.2418524
H           1.6087489    -1.2002796     1.2176507
C           1.9793902    -0.4489633    -0.6596577
O           1.5679765    -0.2477998    -1.7907813
C           0.0837396    -1.9031865    -0.0766301
H           0.0241211    -2.8811104     0.4102605
H           0.0329807    -2.0302511    -1.1584895
H          -0.7715018    -1.2921953     0.2406857
C           5.0181768     1.5049220    -0.1545467
H           5.5969047     2.3345397    -0.5446622
N           3.8425910     1.1651302    -0.7698220
C           3.2697888     0.1575819    -0.1773311
S           4.1856884    -0.4778852     1.1998364
C           5.3739679     0.7466681     0.9272920
H           6.2546923     0.8284188     1.5494900
15
255_C5H6N2OS_0-2-11-10 (-150,) energy =    -777.0545067
N           1.3289632    -1.2444400     0.2564150
H           1.5586780    -1.0880625     1.2282192
C           2.0142297    -0.5356396    -0.6958358
O           1.6593187    -0.4367148    -1.8592842
C           0.0617338    -1.8879101    -0.0494542
H          -0.0238253    -2.8253436     0.5083484
H           0.0413098    -2.0964341    -1.1196841
H          -0.7945479    -1.2461727     0.1953212
C           4.9496238     1.5412349    -0.0742282
H           5.4639704     2.4443376    -0.3828124
N           3.7741402     1.1998530    -0.6920009
C           3.2886564     0.0956827    -0.2038043
S           4.2785134    -0.6267883     1.0731000
C           5.3861835     0.6902153     0.9035742
H           6.2844175     0.7545913     1.5022762
15
255_C5H6N2OS_0-2-11-10 (-135,) energy =    -777.0538906
N           1.3050408    -1.2016568     0.2579839
H           1.5351760    -0.9912724     1.2190917
C           2.0506611    -0.6183061    -0.7298540
O           1.7499933    -0.6273981    -1.9128683
C           0.0388136    -1.8561203    -0.0265024
H          -0.0679883    -2.7519327     0.5929354
H           0.0378356    -2.1380693    -1.0800764
H          -0.8145657    -1.1907731     0.1564751
C           4.8775187     1.5799889    -0.0105759
H           5.3211106     2.5417620    -0.2419646
N           3.7004816     1.2249616    -0.6215097
C           3.3108965     0.0448373    -0.2371646
S           4.3837531    -0.7290301     0.9353740
C           5.4043750     0.6665859     0.8594342
H           6.3204604     0.7292834     1.4305340
15
255_C5H6N2OS_0-2-11-10 (-120,) energy =    -777.0526076
N           1.2656856    -1.1618216     0.2503038
H           1.4750206    -0.8896700     1.2005356
C           2.0787274    -0.7035132    -0.7467400
O           1.8483833    -0.8315002    -1.9388320
C          -0.0008391    -1.8184483    -0.0282749
H          -0.1395635    -2.6719266     0.6427480
H           0.0257031    -2.1668121    -1.0614823
H          -0.8481362    -1.1309767     0.0874228
C           4.8018121     1.5991857     0.0630420
H           5.1713965     2.6074759    -0.0852162
N           3.6121173     1.2331203    -0.5201224
C           3.3219636    -0.0053580    -0.2484944
S           4.5012839    -0.8234837     0.7787271
C           5.4331994     0.6362237     0.7981934
H           6.3759822     0.6981353     1.3240181
15
255_C5H6N2OS_0-2-11-10 (-105,) energy =    -777.0515896
N           1.2302562    -1.1169638     0.2527293
H           1.3832360    -0.7506882     1.1819785
C           2.1202962    -0.7774588    -0.7223598
O           1.9877761    -1.0458553    -1.9063905
C          -0.0273773    -1.7838498    -0.0426531
H          -0.2205457    -2.5699927     0.6939927
H           0.0579599    -2.2274687    -1.0353751
H          -0.8687818    -1.0797748    -0.0437321
C           4.7398263     1.6262596     0.1509768
H           5.0294908     2.6691199     0.0904503
N           3.5221221     1.2425058    -0.3625635
C           3.3368622    -0.0362145    -0.2099838
S           4.6592806    -0.8776883     0.5941143
C           5.4975919     0.6348872     0.7049969
H           6.4782748     0.7052994     1.1548899
15
255_C5H6N2OS_0-2-11-10 (-90,) energy =    -777.0520324
N           1.1932344    -1.0968374     0.2640977
H           1.2711601    -0.6128343     1.1480879
C           2.1572126    -0.8627761    -0.6692979
O           2.1249667    -1.2714768    -1.8203507
C          -0.0618536    -1.7523307    -0.0672441
H          -0.3497688    -2.4389310     0.7347661
H           0.0905754    -2.3137811    -0.9898122
H          -0.8703456    -1.0276768    -0.2259765
C           4.6781548     1.6250104     0.2548829
H           4.8912922     2.6869886     0.2979770
N           3.4322619     1.2098802    -0.1587356
C           3.3480943    -0.0895036    -0.1426025
S           4.8170987    -0.9144311     0.3624329
C           5.5608093     0.6355816     0.5791505
H           6.5804054     0.7279508     0.9269732
15
255_C5H6N2OS_0-2-11-10 (-75,) energy =    -777.0542962
N           1.1768890    -1.0647687     0.2679065
H           1.2036401    -0.4731488     1.0877084
C           2.1992268    -0.9332832    -0.6229810
O           2.2391008    -1.4659614    -1.7230202
C          -0.0799412    -1.7019047    -0.0918518
H          -0.4645497    -2.2728021     0.7585797
H           0.1163998    -2.3781972    -0.9247990
H          -0.8362772    -0.9703193    -0.4037027
C           4.6241089     1.6140081     0.3765377
H           4.7724084     2.6761707     0.5342929
N           3.3699274     1.1558010     0.0432834
C           3.3708512    -0.1409887    -0.0917438
S           4.9398419    -0.9003253     0.1267022
C           5.5991099     0.6628524     0.4738691
H           6.6416492     0.7909693     0.7306232
15
255_C5H6N2OS_0-2-11-10 (-60,) energy =    -777.0578217
N           1.1779061    -1.0283389     0.2526710
H           1.1779116    -0.3422622     0.9965191
C           2.2444314    -1.0064665    -0.5957213
O           2.3289348    -1.6554287    -1.6301572
C          -0.0794800    -1.6591551    -0.1144648
H          -0.5318493    -2.1254388     0.7658654
H           0.1376182    -2.4252531    -0.8600401
H          -0.7904930    -0.9417354    -0.5443074
C           4.5860873     1.5836065     0.4724934
H           4.6862847     2.6298142     0.7379800
N           3.3370102     1.0785665     0.1984402
C           3.4028945    -0.1948796    -0.0807794
S           5.0261358    -0.8591716    -0.1011608
C           5.6201793     0.6956002     0.3721858
H           6.6727147     0.8670058     0.5514371
15
255_C5H6N2OS_0-2-11-10 (-45,) energy =    -777.0617010
N           1.1809642    -0.9884754     0.2287240
H           1.1708034    -0.2268038     0.8956965
C           2.2838364    -1.0763973    -0.5664263
O           2.4035023    -1.8319127    -1.5238681
C          -0.0737947    -1.6277544    -0.1288894
H          -0.5699818    -2.0035202     0.7710707
H           0.1549608    -2.4627702    -0.7925766
H          -0.7530862    -0.9403432    -0.6498564
C           4.5561918     1.5460336     0.5621212
H           4.6239899     2.5650927     0.9255259
N           3.3187712     0.9967716     0.3298701
C           3.4298742    -0.2381675    -0.0819862
S           5.0750405    -0.7994144    -0.2913255
C           5.6231611     0.7331857     0.2943037
H           6.6763903     0.9496114     0.4094008
15
255_C5H6N2OS_0-2-11-10 (-30,) energy =    -777.0650146
N           1.1662328    -0.9382165     0.1953138
H           1.1545482    -0.1275550     0.8020298
C           2.3046367    -1.1335763    -0.5236970
O           2.4552786    -1.9818039    -1.3971553
C          -0.0809208    -1.6010507    -0.1399463
H          -0.6004516    -1.9080289     0.7731949
H           0.1600635    -2.4839545    -0.7338013
H          -0.7457051    -0.9530663    -0.7260987
C           4.5374438     1.5039224     0.6461097
H           4.5920957     2.4910226     1.0908442
N           3.3098861     0.9224002     0.4498835
C           3.4401618    -0.2659329    -0.0784362
S           5.0849286    -0.7405317    -0.4344175
C           5.6133833     0.7617205     0.2396400
H           6.6627740     1.0155602     0.3012427
15
255_C5H6N2OS_0-2-11-10 (-15,) energy =    -777.0671493
N           1.1569547    -0.8815857     0.1334522
H           1.1444192    -0.0449830     0.7035492
C           2.3282680    -1.1712186    -0.4904009
O           2.5069149    -2.0972420    -1.2767432
C          -0.0768566    -1.5851917    -0.1594798
H          -0.6039245    -1.8298701     0.7685186
H           0.1812739    -2.5070592    -0.6828363
H          -0.7429535    -0.9913552    -0.7988216
C           4.5381434     1.4689093     0.7187633
H           4.5910407     2.4191937     1.2377191
N           3.3196316     0.8620461     0.5497547
C           3.4524416    -0.2723018    -0.0860245
S           5.0863806    -0.6702906    -0.5590921
C           5.6088853     0.7965473     0.1927180
H           6.6515460     1.0829956     0.2094459
15
255_C5H6N2OS_0-2-11-10 (0,) energy =    -777.0678893
N           1.0954428    -0.8473840     0.0327187
H           1.0848644     0.0143654     0.5637864
C           2.2984955    -1.2484157    -0.4513760
O           2.5009821    -2.2630132    -1.1134156
C          -0.1270290    -1.5956519    -0.1835178
H          -0.5696716    -1.9119391     0.7684462
H           0.1259089    -2.4796151    -0.7708510
H          -0.8637905    -0.9983503    -0.7337293
C           4.5151619     1.3983960     0.7325884
H           4.5789628     2.3266170     1.2889046
N           3.2990982     0.7793640     0.5944056
C           3.4166922    -0.3198007    -0.1030846
S           5.0358802    -0.6841773    -0.6466212
C           5.5705142     0.7631985     0.1337848
H           6.6083872     1.0663603     0.1136191
15
255_C5H6N2OS_0-2-11-10 (15,) energy =    -777.0671593
N           1.1140857    -0.8139982    -0.0696001
H           1.0829166     0.0670534     0.4282567
C           2.3469593    -1.2769612    -0.4025583
O           2.5832943    -2.3552650    -0.9403103
C          -0.0858562    -1.6156503    -0.2127396
H          -0.4634091    -1.9565299     0.7597417
H           0.1678326    -2.4873321    -0.8177921
H          -0.8723567    -1.0425567    -0.7154350
C           4.5354015     1.3946151     0.7766335
H           4.6000405     2.2938076     1.3786538
N           3.3318175     0.7463298     0.6635944
C           3.4439174    -0.3059585    -0.1036590
S           5.0498259    -0.6040655    -0.7233200
C           5.5787606     0.8218319     0.0994163
H           6.6050207     1.1584050     0.0447676
15
255_C5H6N2OS_0-2-11-10 (30,) energy =    -777.0650112
N           1.1300960    -0.7850546    -0.1560600
H           1.0777109     0.1222362     0.2905426
C           2.3780761    -1.2978707    -0.3306109
O           2.6290094    -2.4288495    -0.7344338
C          -0.0612725    -1.6092477    -0.2481288
H          -0.4007276    -1.9542715     0.7374564
H           0.1811873    -2.4806310    -0.8582500
H          -0.8696198    -1.0455454    -0.7238913
C           4.5845585     1.3602001     0.8420641
H           4.6693378     2.2244341     1.4909496
N           3.3853519     0.6982137     0.7579362
C           3.4665565    -0.3015191    -0.0800580
S           5.0467666    -0.5465687    -0.7874495
C           5.5979424     0.8438572     0.0803545
H           6.6141359     1.2018636    -0.0125742
15
255_C5H6N2OS_0-2-11-10 (45,) energy =    -777.0617015
N           1.1171968    -0.7821135    -0.2246315
H           1.0413146     0.1524153     0.1575158
C           2.3711045    -1.3132462    -0.2680781
O           2.6336269    -2.4766296    -0.5498727
C          -0.0698442    -1.6182730    -0.2799186
H          -0.4359814    -1.8826796     0.7208554
H           0.1919202    -2.5356718    -0.8090674
H          -0.8645681    -1.0986148    -0.8234034
C           4.6231673     1.3087981     0.9003510
H           4.7490314     2.1185112     1.6100386
N           3.4302248     0.6291375     0.8621888
C           3.4524159    -0.2939124    -0.0621398
S           4.9765583    -0.4509593    -0.9097334
C           5.5765190     0.8796900     0.0181862
H           6.5742414     1.2688249    -0.1319161
15
255_C5H6N2OS_0-2-11-10 (60,) energy =    -777.0578226
N           1.1035889    -0.7828761    -0.2635847
H           1.0032342     0.1838741     0.0181048
C           2.3558363    -1.3144599    -0.1804845
O           2.6241717    -2.4993380    -0.3301033
C          -0.0822344    -1.6228754    -0.3086731
H          -0.5047916    -1.7942986     0.6899024
H           0.2061540    -2.5845891    -0.7351779
H          -0.8424408    -1.1565473    -0.9422805
C           4.6857021     1.2528333     0.9660134
H           4.8746338     1.9970912     1.7311713
N           3.5011012     0.5552614     0.9877958
C           3.4360727    -0.2795046    -0.0136684
S           4.8683898    -0.3256779    -1.0250819
C           5.5476073     0.9270250    -0.0434160
H           6.5192047     1.3495129    -0.2598462
15
255_C5H6N2OS_0-2-11-10 (75,) energy =    -777.0542970
N           1.0945444    -0.7949094    -0.3037221
H           0.9816976     0.1969635    -0.1414720
C           2.3349172    -1.3187702    -0.0954323
O           2.5982984    -2.5129007    -0.1046140
C          -0.0937134    -1.6317893    -0.3568935
H          -0.5925918    -1.6991589     0.6183834
H           0.2168723    -2.6325072    -0.6599783
H          -0.7980352    -1.2302929    -1.0914921
C           4.7549783     1.1839722     1.0212185
H           5.0219099     1.8511514     1.8328053
N           3.5900860     0.4564557     1.1093990
C           3.4196526    -0.2765019     0.0446967
S           4.7174561    -0.1705058    -1.1344792
C           5.4951354     0.9886306    -0.1096277
H           6.4284635     1.4555153    -0.3927516
15
255_C5H6N2OS_0-2-11-10 (90,) energy =    -777.0520293
N           1.1146921    -0.8036840    -0.3345787
H           1.0122154     0.2016461    -0.3075171
C           2.3275360    -1.3226289     0.0053581
O           2.5570984    -2.5133883     0.1541314
C          -0.0823853    -1.6263298    -0.4081272
H          -0.6606515    -1.5907772     0.5238662
H           0.2309428    -2.6560612    -0.5846438
H          -0.7153900    -1.2901862    -1.2347572
C           4.8438529     1.1147274     1.0658832
H           5.2004979     1.7020579     1.9042942
N           3.7169844     0.3397777     1.2245848
C           3.4277772    -0.2884159     0.1211227
S           4.5437234     0.0063857    -1.2057803
C           5.4309932     1.0710100    -0.1656103
H           6.3120681     1.5930226    -0.5124466
15
255_C5H6N2OS_0-2-11-10 (105,) energy =    -777.0515888
N           1.1409660    -0.8223929    -0.3572701
H           1.0801692     0.1798038    -0.4712004
C           2.3138620    -1.3440351     0.1015956
O           2.4805883    -2.5157559     0.4027752
C          -0.0718290    -1.6170638    -0.4635103
H          -0.7476619    -1.4404495     0.3825398
H           0.2192668    -2.6681896    -0.4639929
H          -0.5965754    -1.3822709    -1.3948376
C           4.9314247     1.0146289     1.0955640
H           5.3919337     1.5090985     1.9432564
N           3.8643596     0.1733456     1.3131835
C           3.4386716    -0.3348894     0.1936736
S           4.3229576     0.1944981    -1.2350574
C           5.3287238     1.1567312    -0.2028784
H           6.1389810     1.7523849    -0.6000659
15
255_C5H6N2OS_0-2-11-10 (120,) energy =    -777.0526062
N           1.1701086    -0.8362088    -0.4081715
H           1.1399129     0.1514169    -0.6193603
C           2.2952841    -1.3346816     0.1844496
O           2.3955442    -2.4652716     0.6339746
C          -0.0552014    -1.6118158    -0.5091219
H          -0.7735158    -1.3395838     0.2743843
H           0.2066798    -2.6638803    -0.3903415
H          -0.5196161    -1.4581393    -1.4881913
C           5.0099107     0.9389830     1.0985850
H           5.5633687     1.3534851     1.9335119
N           3.9913415     0.0507914     1.3496422
C           3.4411709    -0.3523629     0.2420715
S           4.1328808     0.3584699    -1.2178788
C           5.2429558     1.2315256    -0.2153635
H           5.9953490     1.8825316    -0.6387478
15
255_C5H6N2OS_0-2-11-10 (135,) energy =    -777.0538905
N           1.1960181    -0.8446678    -0.4520924
H           1.1740449     0.1249994    -0.7353226
C           2.2760871    -1.2871755     0.2618353
O           2.3266569    -2.3650811     0.8324199
C          -0.0259371    -1.6255630    -0.5504255
H          -0.7734789    -1.3086297     0.1879480
H           0.2277969    -2.6689583    -0.3594375
H          -0.4523336    -1.5295654    -1.5536611
C           5.0999239     0.8782641     1.0853735
H           5.7411400     1.2137760     1.8925887
N           4.1037427    -0.0262252     1.3578523
C           3.4346057    -0.3238041     0.2827197
S           3.9892753     0.5110384    -1.1733234
C           5.2019902     1.2889750    -0.2145086
H           5.9153953     1.9740941    -0.6515036
15
255_C5H6N2OS_0-2-11-10 (150,) energy =    -777.0545144
N           1.4300940    -1.2962831     0.2394485
H           2.0340155    -1.7277081     0.9257077
C           1.9740570    -0.3756804    -0.6180203
O           1.4363586    -0.0111457    -1.6511186
C           0.1818435    -1.9679132    -0.0860381
H           0.3372589    -2.8362270    -0.7396359
H          -0.4638877    -1.2599533    -0.6074736
H          -0.3052174    -2.2960207     0.8362532
C           5.3008948     1.0917171    -0.3083604
H           6.1494450     1.4641179    -0.8710869
N           4.2138321     0.6034010    -0.9864758
C           3.2896176     0.1974073    -0.1651786
S           3.6984843     0.4063477     1.5437917
C           5.2199209     1.0684234     1.0568838
H           5.9445595     1.4138092     1.7814698
15
255_C5H6N2OS_0-2-11-10 (165,) energy =    -777.0541830
N           1.3996507    -1.2768549     0.2638029
H           1.9517545    -1.6718004     1.0129362
C           2.0186305    -0.4533673    -0.6414189
O           1.5421090    -0.1682144    -1.7280609
C           0.1516590    -1.9427350    -0.0745577
H           0.3148945    -2.8668855    -0.6446273
H          -0.4444105    -1.2651334    -0.6873561
H          -0.3928591    -2.1795490     0.8435644
C           5.2578397     1.1906021    -0.3061148
H           6.0494475     1.6810390    -0.8612861
N           4.1720834     0.7026117    -0.9836729
C           3.3207780     0.1401977    -0.1753414
S           3.8008004     0.2056600     1.5287728
C           5.2501092     1.0162387     1.0509051
H           5.9892217     1.3277097     1.7762905
15
255_C5H6N2OS_0-2-11-10 (180,) energy =    -777.0533730
N           1.3591291    -1.3226840     0.2221327
H           1.7212660    -1.4420339     1.1574876
C           1.9418175    -0.4159539    -0.6222544
O           1.4718790    -0.1073902    -1.7058456
C           0.0741639    -1.9269484    -0.0869796
H           0.0651568    -2.9710411     0.2404255
H          -0.0652477    -1.8823551    -1.1676366
H          -0.7569258    -1.3946118     0.3940090
C           5.0725677     1.4132612    -0.2287487
H           5.7197982     2.1401337    -0.7063687
N           3.9128629     1.0413020    -0.8537496
C           3.2492829     0.1682422    -0.1522642
S           4.0475800    -0.2751948     1.3677569
C           5.3250971     0.8202294     0.9778947
H           6.1703516     0.9595411     1.6378802
