19
441_C9H7FN2_4-6-15-16 (-165,) energy =    -556.4766112
C           5.9042509     1.0451575    -0.3321683
H           6.7354366     1.7310954    -0.4634960
C           5.8903480     0.1368068     0.7262965
H           6.7137976     0.1010960     1.4329791
C           4.8224303    -0.7432477     0.8778697
H           4.8445913    -1.4684491     1.6835403
C           3.7402187    -0.7436799    -0.0158932
C           3.7649968     0.1945509    -1.0625231
F           2.7504722     0.2972587    -1.9325038
C           4.8363509     1.0665344    -1.2255912
H           4.7979330     1.7631547    -2.0567358
C           1.1660976    -2.9627249     1.1385822
H           0.6238908    -3.5766284     1.8429297
C           2.3223687    -2.2567255     1.3722298
H           2.9057963    -2.1363370     2.2712597
N           2.6503641    -1.6229115     0.1991616
N           1.7359615    -1.8775655    -0.7788833
C           0.8519494    -2.6888785    -0.2137789
H           0.0151821    -3.0484638    -0.7985402
19
441_C9H7FN2_4-6-15-16 (-150,) energy =    -556.4784179
C           5.9184757     1.0292183    -0.3317925
H           6.7531178     1.7102633    -0.4675491
C           5.9462792     0.0659838     0.6771332
H           6.8056588    -0.0165157     1.3354406
C           4.8753954    -0.8114619     0.8331240
H           4.9150355    -1.5865803     1.5915716
C           3.7538648    -0.7399761    -0.0037609
C           3.7358496     0.2507926    -0.9976907
F           2.6672453     0.4019286    -1.7927771
C           4.8091361     1.1167116    -1.1715241
H           4.7432657     1.8606944    -1.9586914
C           1.1311919    -2.8959367     1.1490603
H           0.5348017    -3.4445564     1.8634182
C           2.2334778    -2.1152165     1.4108053
H           2.7220382    -1.8545103     2.3374607
N           2.6577727    -1.6095367     0.2091235
N           1.8681565    -2.0213258    -0.8209266
C           0.9550517    -2.7991030    -0.2519257
H           0.1980406    -3.2648262    -0.8695744
19
441_C9H7FN2_4-6-15-16 (-135,) energy =    -556.4792293
C           5.9065419     1.0417760    -0.3059288
H           6.7253375     1.7346421    -0.4753045
C           4.6971486     1.4945637     0.2233338
H           4.5664555     2.5422386     0.4762497
C           3.6567556     0.5949991     0.4514791
H           2.7244764     0.9301526     0.8954263
C           3.8020980    -0.7603788     0.1362857
C           5.0186360    -1.1928469    -0.4079910
F           5.1778840    -2.4778790    -0.7558367
C           6.0685412    -0.3078513    -0.6197877
H           6.9913544    -0.6916969    -1.0421844
C           0.7248047    -2.5715144     0.4514301
H          -0.3358745    -2.7572881     0.3652613
C           1.4098434    -1.4477360     0.0464739
H           1.0847110    -0.5406793    -0.4416887
N           2.7294414    -1.6618126     0.3403999
N           2.9339629    -2.8755044     0.9212069
C           1.7236863    -3.4199453     0.9857438
H           1.6093108    -4.4063975     1.4163310
19
441_C9H7FN2_4-6-15-16 (-120,) energy =    -556.4789031
C           5.9138495     1.0422873    -0.2798938
H           6.7380057     1.7318600    -0.4370166
C           4.7337259     1.4821495     0.3221857
H           4.6340924     2.5145132     0.6430208
C           3.6848265     0.5871307     0.5329429
H           2.7711454     0.9051093     1.0257477
C           3.7962489    -0.7441339     0.1226763
C           4.9860687    -1.1652485    -0.4816318
F           5.1037080    -2.4361693    -0.8928433
C           6.0444296    -0.2879474    -0.6813587
H           6.9473116    -0.6581094    -1.1557100
C           0.7448748    -2.6090168     0.3966719
H          -0.3008365    -2.8381189     0.2515570
C           1.4376465    -1.5233205    -0.0933277
H           1.1359843    -0.6911743    -0.7129453
N           2.7315000    -1.6591586     0.3263955
N           2.9130310    -2.7770359     1.0806601
C           1.7133446    -3.3491244     1.1148180
H           1.5842087    -4.2754693     1.6596955
19
441_C9H7FN2_4-6-15-16 (-105,) energy =    -556.4780153
C           5.9135831     1.0464263    -0.2823868
H           6.7414764     1.7307064    -0.4437047
C           4.7791838     1.4694359     0.4135754
H           4.7207306     2.4817983     0.8012141
C           3.7233158     0.5827574     0.6254045
H           2.8410062     0.8846133     1.1813808
C           3.7858968    -0.7206967     0.1278845
C           4.9314953    -1.1255890    -0.5631284
F           4.9978933    -2.3760089    -1.0443325
C           5.9956940    -0.2572963    -0.7732573
H           6.8645609    -0.6125347    -1.3172993
C           0.7765824    -2.6713707     0.3122114
H          -0.2373221    -2.9661033     0.0835905
C           1.4863898    -1.6249561    -0.2373001
H           1.2309792    -0.8905028    -0.9875600
N           2.7225246    -1.6403472     0.3428443
N           2.8520088    -2.6415837     1.2546714
C           1.6761419    -3.2633828     1.2286314
H           1.5144386    -4.1169203     1.8744960
19
441_C9H7FN2_4-6-15-16 (-90,) energy =    -556.4777255
C           5.8985768     1.0224151    -0.2994090
H           6.7347708     1.6894079    -0.4882861
C           4.8406175     1.4370847     0.5129223
H           4.8495566     2.4264105     0.9597686
C           3.7700099     0.5757701     0.7529043
H           2.9407953     0.8728988     1.3872462
C           3.7510267    -0.6992217     0.1847002
C           4.8185595    -1.0944371    -0.6252714
F           4.7985080    -2.3164430    -1.1813593
C           5.8927312    -0.2488621    -0.8746918
H           6.7013413    -0.5961624    -1.5092174
C           0.8118054    -2.7641755     0.2262594
H          -0.1361657    -3.1573979    -0.1111969
C           1.5536988    -1.7583417    -0.3558702
H           1.3904485    -1.1544993    -1.2369212
N           2.6665118    -1.5924466     0.4165768
N           2.6961181    -2.4524281     1.4707629
C           1.5712871    -3.1536468     1.3532582
H           1.3448261    -3.9173008     2.0863472
19
441_C9H7FN2_4-6-15-16 (-75,) energy =    -556.4787225
C           5.8878761     1.0218916    -0.2938057
H           6.7255228     1.6844506    -0.4913380
C           4.8924017     1.3986392     0.6110516
H           4.9499026     2.3562032     1.1192866
C           3.8160676     0.5468042     0.8558861
H           3.0307895     0.8176171     1.5542219
C           3.7373308    -0.6917177     0.2153510
C           4.7398923    -1.0466859    -0.6907859
F           4.6576678    -2.2281489    -1.3285971
C           5.8141411    -0.2054265    -0.9533005
H           6.5718266    -0.5240892    -1.6614493
C           0.8790341    -2.8622873     0.1796656
H           0.0046774    -3.3543345    -0.2209187
C           1.6618085    -1.9142734    -0.4430408
H           1.6063017    -1.4582557    -1.4209121
N           2.6370540    -1.5626460     0.4450961
N           2.5478662    -2.2612673     1.6112466
C           1.4778540    -3.0345040     1.4491827
H           1.1745023    -3.6933694     2.2527848
19
441_C9H7FN2_4-6-15-16 (-60,) energy =    -556.4806182
C           5.8903286     1.0345427    -0.2850518
H           6.7254000     1.7026203    -0.4740514
C           4.9397481     1.3530936     0.6880471
H           5.0287469     2.2726460     1.2582652
C           3.8642160     0.4976568     0.9194694
H           3.1131188     0.7246503     1.6685711
C           3.7437993    -0.6958770     0.2020743
C           4.7015897    -0.9923567    -0.7714640
F           4.5820941    -2.1278094    -1.4881796
C           5.7711889    -0.1427439    -1.0238473
H           6.4919346    -0.4190340    -1.7863203
C           0.9319139    -2.9248307     0.1622452
H           0.1099375    -3.4888943    -0.2539308
C           1.7689823    -2.0564207    -0.5033040
H           1.8163407    -1.7482043    -1.5371700
N           2.6408257    -1.5597898     0.4234112
N           2.4310888    -2.0894920     1.6616505
C           1.3915636    -2.9023524     1.4998343
H           1.0102018    -3.4501296     2.3520587
19
441_C9H7FN2_4-6-15-16 (-45,) energy =    -556.4825917
C           5.8682500     1.0374846    -0.2724090
H           6.7013567     1.7099698    -0.4535278
C           4.9606708     1.2983869     0.7571252
H           5.0810635     2.1782019     1.3817848
C           3.8866986     0.4394170     0.9789533
H           3.1707432     0.6219459     1.7724614
C           3.7212977    -0.7055582     0.1922419
C           4.6391372    -0.9463358    -0.8346391
F           4.4878650    -2.0367866    -1.6177585
C           5.7050503    -0.0901682    -1.0768849
H           6.3908270    -0.3260259    -1.8839406
C           0.9269727    -2.9587557     0.1964656
H           0.1399645    -3.5773777    -0.2095731
C           1.8254444    -2.1874110    -0.5065680
H           1.9625070    -2.0241209    -1.5641572
N           2.6221244    -1.5689925     0.4165950
N           2.2969827    -1.9225334     1.6923875
C           1.2694143    -2.7536451     1.5536859
H           0.8129867    -3.1832658     2.4361606
19
441_C9H7FN2_4-6-15-16 (-30,) energy =    -556.4839251
C           5.8658375     1.0654923    -0.2621056
H           6.6911314     1.7495627    -0.4347548
C           4.9977500     1.2585379     0.8149340
H           5.1414525     2.0977359     1.4887206
C           3.9339505     0.3853508     1.0275082
H           3.2511368     0.5168250     1.8584349
C           3.7301297    -0.7081685     0.1766765
C           4.6153294    -0.8853413    -0.8922959
F           4.4487748    -1.9332638    -1.7330559
C           5.6705533    -0.0137903    -1.1231007
H           6.3246676    -0.2032846    -1.9678158
C           0.9612477    -2.9977506     0.2131316
H           0.2100258    -3.6674094    -0.1794735
C           1.9198796    -2.3148645    -0.5007339
H           2.1425771    -2.2822037    -1.5545407
N           2.6460529    -1.5882646     0.4050241
N           2.2020776    -1.7771117     1.6799380
C           1.1874076    -2.6251811     1.5588071
H           0.6557326    -2.9449105     2.4457403
19
441_C9H7FN2_4-6-15-16 (-15,) energy =    -556.4842722
C           5.8528108     1.0528901    -0.2738306
H           6.6778501     1.7380421    -0.4428277
C           5.0354577     1.1857023     0.8505210
H           5.2190487     1.9787557     1.5691076
C           3.9739229     0.3099596     1.0604999
H           3.3321069     0.3983950     1.9280010
C           3.7083422    -0.7248985     0.1525670
C           4.5495721    -0.8454656    -0.9604724
F           4.3490142    -1.8414749    -1.8584726
C           5.6043595     0.0280443    -1.1850500
H           6.2165684    -0.1197010    -2.0686489
C           0.9663802    -3.0529472     0.2331165
H           0.2562214    -3.7785452    -0.1357486
C           1.9818281    -2.4530866    -0.4754855
H           2.2894099    -2.5493328    -1.5022912
N           2.6288060    -1.6095722     0.3916877
N           2.0657437    -1.6377549     1.6333823
C           1.0697372    -2.5086383     1.5342547
H           0.4613646    -2.7184190     2.4045620
19
441_C9H7FN2_4-6-15-16 (0,) energy =    -556.4841255
C           5.8697063     1.0456484    -0.2665790
H           6.7042284     1.7214446    -0.4261733
C           5.1048349     1.1176680     0.8993001
H           5.3384531     1.8545411     1.6618694
C           4.0360783     0.2493228     1.0997507
H           3.4353228     0.2942863     1.9989252
C           3.7018109    -0.7167279     0.1383465
C           4.4847033    -0.7686057    -1.0223828
F           4.2155999    -1.6789164    -1.9922963
C           5.5526776     0.0928742    -1.2321206
H           6.1156743    -0.0036868    -2.1546707
C           1.0318909    -3.1313583     0.2778014
H           0.3967274    -3.9443258    -0.0423797
C           2.0975969    -2.5945560    -0.4067262
H           2.5256023    -2.8412233    -1.3618441
N           2.6075092    -1.5862664     0.3732045
N           1.9082336    -1.4545317     1.5371683
C           0.9640825    -2.3836271     1.4758212
H           0.2656048    -2.4835138     2.2966339
19
441_C9H7FN2_4-6-15-16 (15,) energy =    -556.4842721
C           5.8611090     1.0441962    -0.2679897
H           6.7056139     1.7085689    -0.4232673
C           5.1617032     1.0511066     0.9405791
H           5.4575714     1.7246136     1.7392361
C           4.0838604     0.1927094     1.1388469
H           3.5303116     0.1871577     2.0693708
C           3.6754744    -0.6899479     0.1289350
C           4.3844259    -0.6694100    -1.0785440
F           4.0178291    -1.4885098    -2.0950722
C           5.4666976     0.1748463    -1.2833812
H           5.9740043     0.1389373    -2.2418777
C           1.0879544    -3.1824676     0.3200192
H           0.5294677    -4.0696665     0.0595435
C           2.2012192    -2.6869492    -0.3189000
H           2.7530775    -3.0435019    -1.1712665
N           2.5703092    -1.5473017     0.3497021
N           1.7399749    -1.2906003     1.4005412
C           0.8488985    -2.2733098     1.3765230
H           0.0615932    -2.2923494     2.1190544
19
441_C9H7FN2_4-6-15-16 (30,) energy =    -556.4839251
C           5.8535133     1.0261397    -0.2676822
H           6.6975408     1.6892627    -0.4312593
C           5.2142170     0.9841932     0.9734547
H           5.5587639     1.6153914     1.7869455
C           4.1385776     0.1249199     1.1830960
H           3.6281255     0.0794693     2.1377343
C           3.6708959    -0.6950947     0.1486355
C           4.3227132    -0.6323956    -1.0878344
F           3.8953055    -1.4098552    -2.1104007
C           5.4048476     0.2092116    -1.3047944
H           5.8690951     0.2150014    -2.2854873
C           1.1372074    -3.2331550     0.3697524
H           0.6289525    -4.1623071     0.1569866
C           2.3063409    -2.7774980    -0.1963121
H           2.9580101    -3.2053308    -0.9402562
N           2.5761921    -1.5624434     0.3750660
N           1.6252904    -1.2069290     1.2847834
C           0.7623478    -2.2162631     1.2787087
H          -0.1047409    -2.1755139     1.9252790
19
441_C9H7FN2_4-6-15-16 (45,) energy =    -556.4825917
C           5.8371614     1.0177107    -0.2913640
H           6.6784057     1.6802638    -0.4713321
C           5.2685774     0.9263477     0.9814971
H           5.6668064     1.5159800     1.8015184
C           4.1967842     0.0663985     1.2103053
H           3.7395076    -0.0199516     2.1895710
C           3.6623226    -0.6930418     0.1639993
C           4.2477826    -0.5887762    -1.1013401
F           3.7581653    -1.3264336    -2.1218264
C           5.3263337     0.2525123    -1.3396669
H           5.7403761     0.2988760    -2.3414542
C           1.1694547    -3.2650308     0.4016455
H           0.7008428    -4.2231161     0.2302362
C           2.3896344    -2.8385926    -0.0737592
H           3.1274092    -3.3176941    -0.6982640
N           2.5792494    -1.5722030     0.4053999
N           1.5245576    -1.1451078     1.1556702
C           0.6816432    -2.1726676     1.1562409
H          -0.2532664    -2.0897100     1.6953232
19
441_C9H7FN2_4-6-15-16 (60,) energy =    -556.4806182
C           5.8469675     1.0274674    -0.3129928
H           6.6894627     1.6864541    -0.5009599
C           5.3449896     0.8779541     0.9822536
H           5.7971366     1.4171899     1.8089543
C           4.2704373     0.0230017     1.2199343
H           3.8646573    -0.1102970     2.2171305
C           3.6700687    -0.6676479     0.1634121
C           4.1917920    -0.5093165    -1.1233569
F           3.6379919    -1.1901695    -2.1465659
C           5.2715858     0.3278587    -1.3738885
H           5.6375962     0.4217329    -2.3909430
C           1.2164360    -3.2756451     0.3969684
H           0.7889293    -4.2595252     0.2695593
C           2.4789766    -2.8614830     0.0333246
H           3.2989986    -3.3770263    -0.4440621
N           2.5875079    -1.5516919     0.4051056
N           1.4391045    -1.0807654     0.9683192
C           0.6207544    -2.1285400     0.9716354
H          -0.3745176    -2.0216027     1.3836806
19
441_C9H7FN2_4-6-15-16 (75,) energy =    -556.4787225
C           5.8409438     1.0185254    -0.3242407
H           6.6842586     1.6737972    -0.5219635
C           5.4118882     0.8021740     0.9875439
H           5.9205880     1.2859041     1.8156547
C           4.3327597    -0.0450968     1.2358786
H           3.9814618    -0.2286618     2.2461100
C           3.6646348    -0.6644941     0.1774007
C           4.1136233    -0.4399582    -1.1265188
F           3.4890810    -1.0520620    -2.1486214
C           5.1933296     0.3938096    -1.3905453
H           5.5047687     0.5424438    -2.4191474
C           1.2444911    -3.2985643     0.4724985
H           0.8537635    -4.3046080     0.4246786
C           2.5346559    -2.8911386     0.2103711
H           3.4182559    -3.4345308    -0.0916899
N           2.5725211    -1.5425457     0.4186863
N           1.3565603    -1.0421053     0.7749605
C           0.5628396    -2.1085365     0.8176194
H          -0.4765094    -1.9839120     1.0935282
19
441_C9H7FN2_4-6-15-16 (90,) energy =    -556.4777255
C           5.8470003     1.0239373    -0.3332061
H           6.6888312     1.6837300    -0.5223322
C           5.4834657     0.7095527     0.9783258
H           6.0392094     1.1235416     1.8139568
C           4.4007351    -0.1373676     1.2151290
H           4.0946461    -0.3893060     2.2256281
C           3.6785528    -0.6724254     0.1469596
C           4.0587813    -0.3461003    -1.1571928
F           3.3723940    -0.8670775    -2.1869450
C           5.1348320     0.4958516    -1.4107365
H           5.3956614     0.7236893    -2.4389138
C           1.2818359    -3.3107337     0.5940172
H           0.9185145    -4.3243716     0.6816856
C           2.5866011    -2.9039018     0.4121990
H           3.5104871    -3.4553728     0.3129948
N           2.5711735    -1.5399496     0.3681001
N           1.3149372    -1.0333684     0.4984783
C           0.5416826    -2.1071062     0.6396320
H          -0.5250759    -1.9774220     0.7703205
19
441_C9H7FN2_4-6-15-16 (105,) energy =    -556.4780153
C           5.8607213     1.0494093    -0.3172666
H           6.6994986     1.7211174    -0.4751625
C           5.5484495     0.6075668     0.9701436
H           6.1384923     0.9366986     1.8198959
C           4.4641598    -0.2476634     1.1671911
H           4.1914632    -0.5868771     2.1618106
C           3.7005448    -0.6806554     0.0809866
C           4.0274198    -0.2242704    -1.1991297
F           3.2985351    -0.6368368    -2.2469995
C           5.0980181     0.6358713    -1.4102700
H           5.3180128     0.9632503    -2.4209782
C           1.3013348    -3.2752416     0.7189315
H           0.9422444    -4.2638731     0.9655045
C           2.6132799    -2.8691483     0.5978418
H           3.5489608    -3.3990910     0.7037092
N           2.5862107    -1.5450024     0.2650735
N           1.3177601    -1.0620672     0.1729974
C           0.5464032    -2.1117778     0.4433541
H          -0.5296577    -1.9942237     0.4338679
19
441_C9H7FN2_4-6-15-16 (120,) energy =    -556.4789031
C           5.8561076     1.0504514    -0.3182788
H           6.6959637     1.7223882    -0.4685275
C           5.5972090     0.5200686     0.9467651
H           6.2295643     0.7804588     1.7899498
C           4.5084787    -0.3314449     1.1345386
H           4.2754173    -0.7299926     2.1171995
C           3.6870242    -0.6788805     0.0586672
C           3.9645647    -0.1392251    -1.2022614
F           3.1936735    -0.4732201    -2.2474158
C           5.0353564     0.7236168    -1.3986935
H           5.2138118     1.1164231    -2.3942245
C           1.2980121    -3.2423562     0.8234890
H           0.9387172    -4.1982401     1.1759819
C           2.6051529    -2.8095235     0.7705014
H           3.5373665    -3.2861671     1.0373018
N           2.5821701    -1.5501552     0.2393339
N           1.3179488    -1.1343133    -0.0441067
C           0.5481757    -2.1607797     0.3044848
H          -0.5237969    -2.0865738     0.1739067
19
441_C9H7FN2_4-6-15-16 (135,) energy =    -556.4792293
C           5.8680410     1.0294234    -0.3304024
H           6.7158905     1.6904526    -0.4832724
C           5.6519216     0.4353059     0.9138179
H           6.3258849     0.6337215     1.7415103
C           4.5521687    -0.3999892     1.1048926
H           4.3549040    -0.8391946     2.0779016
C           3.6679949    -0.6687307     0.0543995
C           3.9103333    -0.0745613    -1.1911787
F           3.1038270    -0.3405925    -2.2286946
C           4.9918097     0.7756565    -1.3858957
H           5.1359226     1.2125087    -2.3686125
C           1.2936220    -3.2210820     0.8893340
H           0.9335861    -4.1483032     1.3107749
C           2.5834086    -2.7394414     0.9141863
H           3.4989119    -3.1474725     1.3168400
N           2.5719401    -1.5440773     0.2474518
N           1.3302715    -1.2247096    -0.2091398
C           0.5637029    -2.2379163     0.1796201
H          -0.4910718    -2.2271351    -0.0630917
19
441_C9H7FN2_4-6-15-16 (150,) energy =    -556.4784179
C           5.9101103     1.0214786    -0.3235655
H           6.7683856     1.6682275    -0.4783577
C           5.7255962     0.3676939     0.8950625
H           6.4363719     0.5021469     1.7046479
C           4.6132028    -0.4489181     1.0867955
H           4.4486504    -0.9248208     2.0480786
C           3.6707413    -0.6384817     0.0674060
C           3.8868632     0.0100625    -1.1583567
F           3.0482824    -0.1762366    -2.1874379
C           4.9840065     0.8416542    -1.3499368
H           5.0991643     1.3212313    -2.3164891
C           1.3060124    -3.1886005     0.9395824
H           0.9411132    -4.0885055     1.4128601
C           2.5646769    -2.6434699     1.0475755
H           3.4459048    -2.9764083     1.5747752
N           2.5773864    -1.5137224     0.2708549
N           1.3809165    -1.3098602    -0.3463627
C           0.6178245    -2.3161089     0.0630482
H          -0.4041577    -2.3812916    -0.2873189
19
441_C9H7FN2_4-6-15-16 (165,) energy =    -556.4766113
C           5.9265759     1.0115551    -0.3549622
H           6.7867997     1.6540567    -0.5156938
C           5.7844357     0.2949393     0.8332643
H           6.5321354     0.3724711     1.6166418
C           4.6719137    -0.5184157     1.0299128
H           4.5575125    -1.0391716     1.9739635
C           3.6725937    -0.6428500     0.0522217
C           3.8471102     0.0715089    -1.1459360
F           2.9674332    -0.0273747    -2.1524464
C           4.9503324     0.8958407    -1.3411840
H           5.0240553     1.4247704    -2.2858290
C           1.2968799    -3.1587279     1.0058990
H           0.9126964    -4.0090219     1.5503017
C           2.5171127    -2.5484126     1.1748194
H           3.3382556    -2.7836802     1.8332332
N           2.5791408    -1.5167227     0.2708549
N           1.4504475    -1.4507970    -0.4902428
C           0.6801271    -2.4321744    -0.0401849
H          -0.2941284    -2.5860834    -0.4857904
19
441_C9H7FN2_4-6-15-16 (180,) energy =    -556.4753755
C           5.9137531     1.0304118    -0.3478970
H           6.7601823     1.6945397    -0.4927186
C           5.8314866     0.2125914     0.7786152
H           6.6149868     0.2279521     1.5300784
C           4.7406098    -0.6339386     0.9513925
H           4.7035436    -1.2581922     1.8358689
C           3.6974947    -0.6960998     0.0123241
C           3.8023664     0.1383387    -1.1161842
F           2.8624032     0.1565875    -2.0716788
C           4.8919935     0.9857599    -1.2914954
H           4.9086876     1.6017497    -2.1847196
C           1.2217391    -3.0728051     1.0802523
H           0.7631144    -3.8120560     1.7206941
C           2.4123526    -2.4197360     1.2907092
H           3.1153117    -2.4981931     2.1038575
N           2.6029740    -1.5721919     0.2264131
N           1.5738795    -1.6573685    -0.6647529
C           0.7484962    -2.5572367    -0.1491990
H          -0.1610308    -2.8054062    -0.6807573
