30
385_C14H15N_14-0-6-25 (-165,) energy =    -597.2740143
C           0.9767346    -1.0414837     0.3036829
H           1.4835864    -1.6989962     1.0296418
C           0.3355069     0.1312494     1.0759948
H          -0.3352889    -0.2515171     1.8530166
H          -0.2472359     0.7572846     0.3931952
H           1.0907070     0.7633110     1.5506009
N           1.9307856    -0.5586133    -0.6953383
H           1.8807702    -1.0396425    -1.5829708
C          -2.1279724    -3.3567380    -1.6451511
H          -2.9099501    -3.9353849    -2.1294641
C          -1.4502498    -3.8768528    -0.5420079
H          -1.6998701    -4.8647477    -0.1638734
C          -0.4425405    -3.1331473     0.0749672
H           0.0876248    -3.5478737     0.9293479
C          -0.1018192    -1.8589651    -0.3929047
C          -0.7915762    -1.3441766    -1.5008561
H          -0.5404567    -0.3551480    -1.8755127
C          -1.7937309    -2.0881459    -2.1239315
H          -2.3166413    -1.6747926    -2.9824934
C           5.7601161     1.0386073     0.0920451
H           6.7447407     1.4566242     0.2793679
C           5.2999769     0.8566247    -1.2163207
H           5.9297935     1.1319553    -2.0587963
C           4.0372321     0.3298925    -1.4580280
H           3.6851091     0.2047430    -2.4801145
C           3.1892548    -0.0409784    -0.3930125
C           3.6635099     0.1306954     0.9207904
H           3.0564146    -0.1684627     1.7677310
C           4.9309828     0.6703181     1.1496184
H           5.2714058     0.7926603     2.1750917
30
385_C14H15N_14-0-6-25 (-150,) energy =    -597.2746050
C           0.8819242    -0.8658159     0.3170284
H           1.4543506    -1.4853401     1.0247336
C           0.1740812     0.2472555     1.1138769
H          -0.4618110    -0.1857598     1.8942680
H          -0.4531143     0.8518455     0.4513277
H           0.9002266     0.9146863     1.5875685
N           1.7987009    -0.2977511    -0.6818843
H           1.6906666    -0.7092379    -1.5999545
C          -1.9850767    -3.4502563    -1.6563232
H          -2.7048648    -4.0980635    -2.1493671
C          -1.1850229    -3.9455802    -0.6261468
H          -1.2767742    -4.9825494    -0.3139387
C          -0.2584844    -3.1122464     0.0034656
H           0.3671293    -3.5064534     0.8009956
C          -0.1215246    -1.7729232    -0.3789351
C          -0.9336391    -1.2845257    -1.4140321
H          -0.8435727    -0.2459971    -1.7230892
C          -1.8547763    -2.1167566    -2.0502634
H          -2.4744291    -1.7221838    -2.8513459
C           5.8068044     0.7870437     0.0974911
H           6.8373124     1.0740359     0.2845101
C           5.3344362     0.6381948    -1.2104860
H           6.0004111     0.8066873    -2.0532876
C           4.0156187     0.2731874    -1.4518054
H           3.6601010     0.1649780    -2.4748202
C           3.1196081     0.0422593    -0.3868521
C           3.6013628     0.1906943     0.9269878
H           2.9475963     0.0207248     1.7751438
C           4.9284974     0.5597307     1.1552132
H           5.2738450     0.6668036     2.1807274
30
385_C14H15N_14-0-6-25 (-135,) energy =    -597.2740231
C           0.7900650    -0.6728199     0.3628631
H           1.3942745    -1.2480791     1.0775261
C           0.0043102     0.3901634     1.1498118
H          -0.6360087    -0.0806090     1.9046262
H          -0.6277958     0.9826589     0.4805868
H           0.6910389     1.0780977     1.6538218
N           1.7034261    -0.0438396    -0.6102909
H           1.5162256    -0.3324960    -1.5623821
C          -1.7801582    -3.4964811    -1.6938786
H          -2.4212694    -4.2051653    -2.2111259
C          -0.8900364    -3.9393575    -0.7148504
H          -0.8329020    -4.9959207    -0.4665907
C          -0.0656412    -3.0272964    -0.0535097
H           0.6302759    -3.3809417     0.7036912
C          -0.1204043    -1.6607232    -0.3523188
C          -1.0230337    -1.2265403    -1.3354700
H          -1.0877730    -0.1687259    -1.5795956
C          -1.8428813    -2.1363160    -2.0036994
H          -2.5348441    -1.7817499    -2.7632067
C           5.8355522     0.5038829     0.0739415
H           6.8983360     0.6528088     0.2401022
C           5.3240818     0.4046312    -1.2233698
H           5.9916081     0.4720873    -2.0789793
C           3.9642515     0.2102764    -1.4384527
H           3.5808399     0.1292940    -2.4539892
C           3.0666961     0.1130492    -0.3556847
C           3.5860013     0.2227347     0.9481042
H           2.9237414     0.1764202     1.8064271
C           4.9537230     0.4112379     1.1500843
H           5.3283717     0.4913387     2.1677326
30
385_C14H15N_14-0-6-25 (-120,) energy =    -597.2737766
C           0.7171022    -0.5791392     0.2938762
H           1.3593002    -0.9812521     1.0861186
C          -0.1968168     0.4851593     0.9332849
H          -0.8575547     0.0405545     1.6837071
H          -0.8343141     0.9497192     0.1703298
H           0.4016478     1.2662431     1.4155917
N           1.5861149     0.0549790    -0.7042971
H           1.2128438     0.9373118    -1.0348751
C          -1.7055947    -3.8283559    -1.2683135
H          -2.3192642    -4.6393863    -1.6513849
C          -1.5476384    -3.6567832     0.1090561
H          -2.0347742    -4.3365344     0.8035624
C          -0.7575922    -2.6166636     0.5965019
H          -0.6347786    -2.4963481     1.6716127
C          -0.1129784    -1.7301280    -0.2781508
C          -0.2692787    -1.9170312    -1.6545334
H           0.2515793    -1.2521420    -2.3361849
C          -1.0621785    -2.9565723    -2.1466953
H          -1.1708180    -3.0875148    -3.2204555
C           5.7947852     0.1798484    -0.3662817
H           6.8774935     0.2135581    -0.2889978
C           5.0872081     1.2543820    -0.9103313
H           5.6182922     2.1371859    -1.2577250
C           3.6987745     1.2168519    -1.0025084
H           3.1589337     2.0669613    -1.4162030
C           2.9776252     0.0919480    -0.5600782
C           3.6964041    -0.9958887    -0.0306430
H           3.1703845    -1.8958140     0.2729543
C           5.0858781    -0.9404535     0.0698066
H           5.6185684    -1.7933041     0.4833541
30
385_C14H15N_14-0-6-25 (-105,) energy =    -597.2751363
C           0.6269043    -0.4107207     0.3462364
H           1.2293900    -0.7325600     1.2068259
C          -0.4190505     0.5968909     0.8586675
H          -1.1040158     0.1203715     1.5659980
H          -1.0205640     0.9804848     0.0252209
H           0.0675773     1.4407799     1.3617607
N           1.5079365     0.2612891    -0.6147678
H           1.2129326     1.2083908    -0.8190386
C          -1.4415594    -3.8783018    -1.2486782
H          -1.9696194    -4.7433468    -1.6410980
C          -1.2501757    -3.7363474     0.1274743
H          -1.6261296    -4.4926108     0.8118649
C          -0.5675261    -2.6269948     0.6259456
H          -0.4161296    -2.5267905     1.6996515
C          -0.0685310    -1.6417553    -0.2370616
C          -0.2574730    -1.7972835    -1.6136707
H           0.1522822    -1.0503838    -2.2865755
C          -0.9409716    -2.9064878    -2.1160789
H          -1.0766917    -3.0137262    -3.1893664
C           5.7138655    -0.0687057    -0.4515439
H           6.7962374    -0.1506723    -0.4173998
C           5.1045126     1.0994757    -0.9168481
H           5.7129626     1.9384322    -1.2455590
C           3.7178629     1.2099204    -0.9558996
H           3.2555858     2.1290858    -1.3119231
C           2.8995848     0.1451635    -0.5337567
C           3.5167292    -1.0350773    -0.0804828
H           2.9089318    -1.8862425     0.2098108
C           4.9075403    -1.1293586    -0.0372838
H           5.3621466    -2.0512191     0.3172050
30
385_C14H15N_14-0-6-25 (-90,) energy =    -597.2763289
C           0.5392831    -0.2840703     0.4265655
H           1.0764404    -0.5553697     1.3492491
C          -0.6116010     0.6615408     0.8123419
H          -1.3225908     0.1534517     1.4697587
H          -1.1560728     0.9852784    -0.0825944
H          -0.2315607     1.5477301     1.3354658
N           1.4477064     0.4275385    -0.4734368
H           1.2362833     1.4147141    -0.5494934
C          -1.1628063    -3.9025338    -1.2588422
H          -1.6013401    -4.8058759    -1.6745058
C          -0.9948571    -3.7746071     0.1214078
H          -1.3003295    -4.5789998     0.7856822
C          -0.4255633    -2.6159560     0.6505344
H          -0.2907839    -2.5245022     1.7271633
C          -0.0198740    -1.5684824    -0.1866243
C          -0.1863330    -1.7083534    -1.5683794
H           0.1493513    -0.9075250    -2.2201526
C          -0.7547539    -2.8666827    -2.1010128
H          -0.8735887    -2.9620753    -3.1774007
C           5.6056614    -0.2981178    -0.5759157
H           6.6759343    -0.4790200    -0.6111544
C           5.0797815     0.9322359    -0.9801999
H           5.7418152     1.7200836    -1.3311244
C           3.7097408     1.1675956    -0.9333956
H           3.3124658     2.1310835    -1.2483958
C           2.8229294     0.1717569    -0.4804222
C           3.3546951    -1.0676246    -0.0814203
H           2.6929826    -1.8633982     0.2432026
C           4.7315157    -1.2892075    -0.1301754
H           5.1197450    -2.2554728     0.1826120
30
385_C14H15N_14-0-6-25 (-75,) energy =    -597.2762619
C           0.4708697    -0.1818281     0.5326971
H           0.9150299    -0.4373450     1.5106357
C          -0.7423357     0.7263440     0.7922114
H          -1.4891077     0.2022385     1.3948667
H          -1.2128976     1.0160418    -0.1541800
H          -0.4437089     1.6345227     1.3309015
N           1.4355015     0.5577006    -0.2726446
H           1.2848420     1.5576528    -0.2794675
C          -0.9309170    -3.8690543    -1.2724180
H          -1.2957282    -4.7900690    -1.7193334
C          -0.8198736    -3.7577713     0.1146648
H          -1.0971975    -4.5921248     0.7538170
C          -0.3438183    -2.5758578     0.6839825
H          -0.2527265    -2.4967267     1.7660436
C           0.0238388    -1.4899296    -0.1199722
C          -0.0886070    -1.6112110    -1.5094197
H           0.2134823    -0.7777107    -2.1365905
C          -0.5617826    -2.7926529    -2.0816626
H          -0.6377794    -2.8743261    -3.1629928
C           5.5048705    -0.4672399    -0.7289336
H           6.5528975    -0.7222157    -0.8558328
C           5.0304183     0.7960773    -1.0944493
H           5.7111173     1.5361864    -1.5081059
C           3.6888391     1.1230466    -0.9336703
H           3.3310586     2.1090268    -1.2254610
C           2.7765196     0.1911928    -0.3985714
C           3.2576642    -1.0779783    -0.0299918
H           2.5814123    -1.8230890     0.3724768
C           4.6068845    -1.3929753    -0.1995951
H           4.9543537    -2.3815295     0.0908013
30
385_C14H15N_14-0-6-25 (-60,) energy =    -597.2753482
C           0.5044787    -0.1629290     0.7081559
H           0.9061413    -0.4693519     1.6843097
C          -0.7364796     0.7049132     0.9753114
H          -1.4987083     0.1308181     1.5094857
H          -1.1805504     1.0441646     0.0307761
H          -0.4690070     1.5826487     1.5732324
N           1.5102312     0.6705749     0.0666437
H           1.1412386     1.3811729    -0.5516288
C          -0.7135686    -3.7659926    -1.3908882
H          -1.0314514    -4.6659141    -1.9105139
C          -0.6992416    -3.7282157     0.0045584
H          -1.0050499    -4.5997156     0.5777665
C          -0.2832946    -2.5727133     0.6667972
H          -0.2686259    -2.5514901     1.7553964
C           0.1200150    -1.4384656    -0.0487692
C           0.1049391    -1.4888208    -1.4467573
H           0.4350334    -0.6252904    -2.0179377
C          -0.3080152    -2.6429109    -2.1139235
H          -0.3073021    -2.6661999    -3.2006575
C           5.4735512    -0.4654631    -0.8264584
H           6.4991107    -0.7426800    -1.0516873
C           4.9114259     0.6900793    -1.3764157
H           5.5003881     1.3232201    -2.0355978
C           3.5978467     1.0456755    -1.0907089
H           3.1746202     1.9527168    -1.5190563
C           2.8027138     0.2508679    -0.2407929
C           3.3700223    -0.9151859     0.3049432
H           2.7805308    -1.5615315     0.9456331
C           4.6901335    -1.2579908     0.0121056
H           5.1046392    -2.1652666     0.4449144
30
385_C14H15N_14-0-6-25 (-45,) energy =    -597.2741119
C           0.4576677    -0.1267209     0.7820439
H           0.7409232    -0.4360053     1.7989931
C          -0.8030269     0.7420792     0.9072621
H          -1.6111355     0.1777491     1.3807983
H          -1.1548919     1.0595227    -0.0824816
H          -0.5953568     1.6333154     1.5096903
N           1.5374377     0.7154663     0.2638810
H           1.2000903     1.4731162    -0.3182321
C          -0.5050530    -3.7476093    -1.4120204
H          -0.7602612    -4.6523636    -1.9572131
C          -0.5063412    -3.7434376    -0.0165717
H          -0.7626294    -4.6462771     0.5318249
C          -0.1700589    -2.5805677     0.6784689
H          -0.1675482    -2.5850716     1.7672271
C           0.1677985    -1.4065282    -0.0044465
C           0.1661325    -1.4225139    -1.4043792
H           0.4430205    -0.5251180    -1.9516075
C          -0.1654877    -2.5828861    -2.1036084
H          -0.1543175    -2.5789894    -3.1904918
C           5.3496813    -0.6284235    -0.9555216
H           6.3374890    -0.9594288    -1.2623427
C           4.8048641     0.5525476    -1.4656268
H           5.3688952     1.1516912    -2.1763273
C           3.5368289     0.9742261    -1.0777107
H           3.1251960     1.8978441    -1.4815615
C           2.7760983     0.2247785    -0.1599711
C           3.3296742    -0.9622215     0.3526133
H           2.7674173    -1.5636017     1.0584898
C           4.5997771    -1.3761119    -0.0469511
H           5.0042032    -2.2992970     0.3609073
30
385_C14H15N_14-0-6-25 (-30,) energy =    -597.2714813
C           0.3962316    -0.0977065     0.8448885
H           0.5338876    -0.4003111     1.8942429
C          -0.8490168     0.8000256     0.7971757
H          -1.7191583     0.2672555     1.1907257
H          -1.0750955     1.0978438    -0.2340670
H          -0.6935665     1.7030828     1.3990923
N           1.5608824     0.7182635     0.4614109
H           1.2805833     1.5736696    -0.0044046
C          -0.3677054    -3.7449631    -1.3768526
H          -0.5749632    -4.6574218    -1.9294990
C          -0.4230366    -3.7405612     0.0170793
H          -0.6744141    -4.6497816     0.5571030
C          -0.1484990    -2.5676354     0.7230381
H          -0.1885185    -2.5712498     1.8108495
C           0.1804103    -1.3846728     0.0520793
C           0.2314571    -1.4009315    -1.3479073
H           0.5003543    -0.4953122    -1.8853635
C          -0.0373819    -2.5705962    -2.0574267
H           0.0146801    -2.5667502    -3.1430940
C           5.2370875    -0.6788222    -1.0787733
H           6.1911955    -1.0240887    -1.4661056
C           4.7065306     0.5470022    -1.4860110
H           5.2467520     1.1671770    -2.1971775
C           3.4792211     0.9859485    -0.9965608
H           3.0757209     1.9421019    -1.3264108
C           2.7507159     0.2113268    -0.0744651
C           3.2950998    -1.0176739     0.3405489
H           2.7605756    -1.6311448     1.0576793
C           4.5189411    -1.4521797    -0.1649235
H           4.9161378    -2.4081399     0.1675353
30
385_C14H15N_14-0-6-25 (-15,) energy =    -597.2683962
C           0.3463734    -0.0878117     0.8858202
H           0.3318945    -0.3658868     1.9508178
C          -0.8437071     0.8573788     0.6565495
H          -1.7784265     0.3730979     0.9540242
H          -0.9255809     1.1347915    -0.4009062
H          -0.7292373     1.7717549     1.2519983
N           1.5948811     0.6662682     0.6369765
H           1.3904768     1.6129887     0.3391352
C          -0.3035210    -3.7749262    -1.3014544
H          -0.4835772    -4.6975438    -1.8467626
C          -0.4077208    -3.7489112     0.0890996
H          -0.6707763    -4.6514635     0.6346288
C          -0.1694313    -2.5618510     0.7852610
H          -0.2490919    -2.5481819     1.8705227
C           0.1723187    -1.3865698     0.1074396
C           0.2720188    -1.4245482    -1.2904044
H           0.5499407    -0.5256736    -1.8341813
C           0.0389844    -2.6078734    -1.9890747
H           0.1281108    -2.6206092    -3.0722030
C           5.1651732    -0.6624261    -1.1913659
H           6.0936797    -0.9893213    -1.6503259
C           4.6566203     0.6119785    -1.4485071
H           5.1872893     1.2886647    -2.1139072
C           3.4605603     1.0278820    -0.8685322
H           3.0704450     2.0211349    -1.0857784
C           2.7453063     0.1823490     0.0003874
C           3.2727258    -1.0946931     0.2683081
H           2.7526412    -1.7593106     0.9491966
C           4.4606995    -1.5073694    -0.3311687
H           4.8438218    -2.5009952    -0.1117193
30
385_C14H15N_14-0-6-25 (0,) energy =    -597.2658265
C           0.3086930    -0.0784780     0.8857577
H           0.1516020    -0.3141653     1.9489767
C          -0.7914040     0.9192152     0.4839333
H          -1.7819440     0.4947181     0.6754784
H          -0.7264745     1.1718235    -0.5802913
H          -0.7041045     1.8451327     1.0669018
N           1.6298511     0.5886634     0.7720908
H           1.5050695     1.5872541     0.6522323
C          -0.2692424    -3.8174680    -1.2294838
H          -0.4307742    -4.7538672    -1.7568130
C          -0.4003013    -3.7612518     0.1577551
H          -0.6659732    -4.6534135     0.7188188
C          -0.1883310    -2.5558833     0.8309300
H          -0.2907824    -2.5177350     1.9134170
C           0.1550473    -1.3924694     0.1334725
C           0.2820435    -1.4616433    -1.2615490
H           0.5607208    -0.5734000    -1.8217590
C           0.0739635    -2.6626626    -1.9372548
H           0.1828958    -2.6986354    -3.0180134
C           5.1162899    -0.6256299    -1.2895181
H           6.0248589    -0.9245538    -1.8042334
C           4.6362894     0.6805290    -1.3958392
H           5.1688467     1.4112701    -1.9997321
C           3.4643235     1.0593808    -0.7445391
H           3.0927477     2.0777360    -0.8482323
C           2.7486283     0.1447815     0.0512335
C           3.2509148    -1.1650331     0.1699917
H           2.7351531    -1.8826471     0.7979054
C           4.4107910    -1.5401203    -0.5039980
H           4.7743143    -2.5594787    -0.3991133
30
385_C14H15N_14-0-6-25 (15,) energy =    -597.2647485
C           1.0924941    -1.7390049     1.3076302
H           1.0306485    -2.8177825     1.5085660
C           0.6247293    -1.0231060     2.5842413
H          -0.4027295    -1.2992289     2.8477195
H           0.6803285     0.0650936     2.4739687
H           1.2801893    -1.3015553     3.4148550
N           2.5372838    -1.4669782     1.0913398
H           3.1009219    -2.2665212     1.3502283
C          -1.4219968    -1.1699446    -2.1921288
H          -2.0495869    -1.0450639    -3.0704684
C          -0.3589044    -2.0767512    -2.2090229
H          -0.1545207    -2.6617485    -3.1018860
C           0.4416530    -2.2340978    -1.0807981
H           1.2711842    -2.9367186    -1.1049925
C           0.2061323    -1.4919011     0.0868470
C          -0.8638214    -0.5902811     0.0913881
H          -1.0798451    -0.0040909     0.9786694
C          -1.6709915    -0.4290628    -1.0386392
H          -2.4961095     0.2779900    -1.0114468
C           4.4509464     0.6986815    -1.9924307
H           4.9591459     1.2587556    -2.7719616
C           4.9998116    -0.4837255    -1.4934150
H           5.9433354    -0.8566010    -1.8845891
C           4.3411787    -1.2072542    -0.5022801
H           4.7738054    -2.1359509    -0.1329654
C           3.1199024    -0.7569436     0.0347138
C           2.5818342     0.4456231    -0.4608635
H           1.6536024     0.8298268    -0.0540557
C           3.2380292     1.1499397    -1.4678702
H           2.7970339     2.0728176    -1.8367541
30
385_C14H15N_14-0-6-25 (30,) energy =    -597.2667213
C           1.0780070    -1.7323368     1.2875206
H           0.9362864    -2.7798124     1.5854132
C           0.7192541    -0.8774773     2.5143080
H          -0.3121128    -1.0541086     2.8394043
H           0.8417600     0.1919840     2.3129192
H           1.3901108    -1.1368745     3.3380766
N           2.5263965    -1.6246346     1.0012591
H           3.0021268    -2.5112351     1.1021394
C          -1.4941945    -1.2313220    -2.1859778
H          -2.1359517    -1.1241531    -3.0563551
C          -0.4332365    -2.1406887    -2.2003669
H          -0.2445481    -2.7454001    -3.0835822
C           0.3866694    -2.2740359    -1.0830370
H           1.2152925    -2.9776080    -1.1074966
C           0.1725389    -1.5062856     0.0720064
C          -0.8949884    -0.6017665     0.0740189
H          -1.0938006     0.0069402     0.9500835
C          -1.7209772    -0.4637615    -1.0455752
H          -2.5426287     0.2474515    -1.0207425
C           4.4810825     0.7875777    -1.8645039
H           4.9998418     1.4074199    -2.5898871
C           4.9975738    -0.4548518    -1.4910291
H           5.9267186    -0.8138579    -1.9270055
C           4.3274240    -1.2528456    -0.5682615
H           4.7385558    -2.2231951    -0.2936690
C           3.1225415    -0.8241742     0.0220104
C           2.6131661     0.4334572    -0.3509200
H           1.6922606     0.7976642     0.0891823
C           3.2851591     1.2172320    -1.2872230
H           2.8660035     2.1823629    -1.5612978
30
385_C14H15N_14-0-6-25 (45,) energy =    -597.2682277
C           1.0681447    -1.7082633     1.2293024
H           0.8796997    -2.7176871     1.6189735
C           0.8327522    -0.7457583     2.4072403
H          -0.1779067    -0.8550342     2.8149828
H           0.9771522     0.3003700     2.1199842
H           1.5488670    -0.9762833     3.2007886
N           2.4887049    -1.7345828     0.8534056
H           2.9119306    -2.6500118     0.9022185
C          -1.6659476    -1.3159790    -2.1386166
H          -2.3482295    -1.2358224    -2.9806207
C          -0.5667899    -2.1762754    -2.2008286
H          -0.3880556    -2.7696643    -3.0937917
C           0.3065227    -2.2738294    -1.1204545
H           1.1655880    -2.9365917    -1.1841373
C           0.1076345    -1.5192740     0.0455349
C          -0.9979774    -0.6622038     0.0953496
H          -1.1852376    -0.0615115     0.9794431
C          -1.8766270    -0.5600281    -0.9873093
H          -2.7261580     0.1152967    -0.9256455
C           4.6145190     0.8431805    -1.7285942
H           5.1772657     1.5022166    -2.3830626
C           5.1269186    -0.4033857    -1.3602801
H           6.0978657    -0.7255442    -1.7288124
C           4.4047590    -1.2487483    -0.5248976
H           4.8181315    -2.2169070    -0.2462166
C           3.1424823    -0.8702931    -0.0230597
C           2.6314210     0.3863667    -0.3977342
H           1.6589185     0.7073878    -0.0449525
C           3.3641306     1.2220726    -1.2402055
H           2.9427447     2.1856869    -1.5163603
30
385_C14H15N_14-0-6-25 (60,) energy =    -597.2696331
C           1.1825367    -1.7452591     1.1464263
H           0.9903163    -2.7455968     1.5593329
C           1.0823977    -0.7534385     2.3220178
H           0.1069113    -0.8097864     2.8168600
H           1.2485447     0.2780614     1.9958140
H           1.8475414    -0.9976483     3.0661792
N           2.5451479    -1.8389652     0.6165263
H           3.1415249    -2.4668578     1.1367690
C          -1.7996375    -1.3005075    -1.9903739
H          -2.5456538    -1.2080757    -2.7751690
C          -0.7093574    -2.1594685    -2.1513420
H          -0.6020571    -2.7392998    -3.0644957
C           0.2468939    -2.2740082    -1.1451889
H           1.1006852    -2.9319618    -1.2781165
C           0.1394182    -1.5344713     0.0424685
C          -0.9585805    -0.6793631     0.1939202
H          -1.0749929    -0.0910386     1.0981638
C          -1.9194071    -0.5617761    -0.8149290
H          -2.7612974     0.1117241    -0.6765079
C           4.7718689     0.9640185    -1.6269269
H           5.3572030     1.6712383    -2.2070769
C           5.3659562    -0.1797426    -1.0864141
H           6.4248222    -0.3713891    -1.2427760
C           4.6161800    -1.0854123    -0.3448900
H           5.0922301    -1.9751164     0.0643190
C           3.2393657    -0.8772478    -0.1162272
C           2.6477944     0.2799386    -0.6572778
H           1.5936314     0.4759071    -0.5078240
C           3.4123453     1.1778064    -1.4034277
H           2.9276176     2.0616438    -1.8113206
30
385_C14H15N_14-0-6-25 (75,) energy =    -597.2707851
C           1.1704813    -1.7412883     1.0426973
H           0.9665790    -2.7085154     1.5236922
C           1.1851606    -0.6858301     2.1631956
H           0.2436993    -0.6825403     2.7219691
H           1.3610657     0.3211216     1.7734470
H           1.9891142    -0.9184618     2.8695094
N           2.4907856    -1.9381020     0.4224383
H           3.0686497    -2.5718320     0.9604046
C          -1.9885793    -1.3698161    -1.9283484
H          -2.7794316    -1.2956793    -2.6700321
C          -0.9108492    -2.2359279    -2.1300612
H          -0.8585696    -2.8394042    -3.0327258
C           0.1036129    -2.3273687    -1.1796663
H           0.9490680    -2.9882915    -1.3446173
C           0.0665479    -1.5577935    -0.0069305
C          -1.0183905    -0.6934538     0.1845761
H          -1.0788685    -0.0802487     1.0777836
C          -2.0370512    -0.5991389    -0.7683580
H          -2.8672918     0.0818119    -0.5991991
C           4.8742913     1.0222511    -1.4326354
H           5.4967607     1.7686145    -1.9173226
C           5.4448921    -0.1160876    -0.8580126
H           6.5216877    -0.2634913    -0.8899014
C           4.6477003    -1.0695369    -0.2330610
H           5.1069830    -1.9509356     0.2118042
C           3.2481614    -0.9180324    -0.1694760
C           2.6784011     0.2290636    -0.7525755
H           1.6046632     0.3713208    -0.7366070
C           3.4898051     1.1804726    -1.3712791
H           3.0235269     2.0574800    -1.8137684
30
385_C14H15N_14-0-6-25 (90,) energy =    -597.2699379
C           1.1633801    -1.6946029     0.9205987
H           0.9849647    -2.6269005     1.4756039
C           1.2574573    -0.5791644     1.9752703
H           0.3704937    -0.5724787     2.6165702
H           1.3649966     0.4112721     1.5251381
H           2.1284026    -0.7551045     2.6152148
N           2.4348271    -1.9580968     0.2126130
H           2.9708761    -2.6685045     0.6972026
C          -2.2034823    -1.4913989    -1.8334835
H          -3.0464777    -1.4587815    -2.5186293
C          -1.1005484    -2.3030512    -2.1091973
H          -1.0803772    -2.9052708    -3.0140596
C          -0.0185863    -2.3413896    -1.2316119
H           0.8468476    -2.9572265    -1.4548356
C          -0.0135467    -1.5733448    -0.0577385
C          -1.1238865    -0.7607160     0.2064026
H          -1.1525796    -0.1475503     1.1014388
C          -2.2094253    -0.7195537    -0.6729202
H          -3.0578132    -0.0783408    -0.4475062
C           5.0192909     1.0601144    -1.2347772
H           5.6886949     1.8250024    -1.6173974
C           5.5288334    -0.1012468    -0.6508410
H           6.6033093    -0.2479388    -0.5728228
C           4.6709802    -1.0781670    -0.1515833
H           5.0823439    -1.9747899     0.3094077
C           3.2752771    -0.9244764    -0.2354725
C           2.7669196     0.2413693    -0.8374843
H           1.6948949     0.3693669    -0.9432286
C           3.6349160     1.2191334    -1.3209060
H           3.2185132     2.1125519    -1.7797925
30
385_C14H15N_14-0-6-25 (105,) energy =    -597.2681327
C           1.1289786    -1.5160382     0.9041895
H           0.9985301    -2.3136676     1.6486529
C           1.2138295    -0.2011816     1.7032042
H           0.3137361    -0.0737179     2.3117746
H           1.3050594     0.6728160     1.0549121
H           2.0798939    -0.2212085     2.3732643
N           2.3749607    -1.8778018     0.1936686
H           2.8089090    -2.6872200     0.6189748
C          -2.4101819    -1.7212951    -1.6190555
H          -3.2983595    -1.7733681    -2.2431754
C          -1.1423520    -1.8477687    -2.1851870
H          -1.0365547    -2.0011542    -3.2562673
C          -0.0004754    -1.7850957    -1.3821372
H           0.9846844    -1.9057157    -1.8200439
C          -0.1061775    -1.5844262    -0.0019905
C          -1.3874540    -1.4671910     0.5579127
H          -1.4984100    -1.3306054     1.6315514
C          -2.5287695    -1.5351686    -0.2396668
H          -3.5114407    -1.4455021     0.2165465
C           5.3493614     0.8116993    -1.1485835
H           6.1182900     1.4909880    -1.5047426
C           5.6950934    -0.3576619    -0.4687591
H           6.7404334    -0.5957036    -0.2881143
C           4.7090604    -1.2231892    -0.0007470
H           4.9921641    -2.1235597     0.5420720
C           3.3460952    -0.9508338    -0.2178871
C           3.0055585     0.2186509    -0.9241006
H           1.9639026     0.4284873    -1.1445200
C           3.9987922     1.0893237    -1.3689708
H           3.7099980     1.9878837    -1.9086846
30
385_C14H15N_14-0-6-25 (120,) energy =    -597.2665806
C           1.1091668    -1.3984174     0.8063115
H           1.0566960    -2.1128368     1.6406973
C           1.1533589    -0.0047961     1.4575605
H           0.2813538     0.1129450     2.1081634
H           1.1267167     0.8014541     0.7215273
H           2.0569831     0.1122237     2.0645105
N           2.3245082    -1.7638129     0.0448580
H           2.6667487    -2.6709782     0.3352729
C          -2.5563848    -1.9089980    -1.4713676
H          -3.4778522    -2.0310516    -2.0345376
C          -1.3352160    -1.7915013    -2.1353714
H          -1.3011733    -1.8229767    -3.2215782
C          -0.1498324    -1.6411376    -1.4116153
H           0.8039185    -1.5757352    -1.9255072
C          -0.1682713    -1.5978934    -0.0141067
C          -1.3997062    -1.7249304     0.6439217
H          -1.4327003    -1.7101339     1.7321268
C          -2.5843976    -1.8785992    -0.0751317
H          -3.5284459    -1.9801780     0.4542475
C           5.5703626     0.7471640    -0.9775139
H           6.4085800     1.3806421    -1.2526910
C           5.7846079    -0.4685196    -0.3257273
H           6.7954765    -0.7886741    -0.0855531
C           4.7088347    -1.2749645     0.0401473
H           4.8868885    -2.2107338     0.5671830
C           3.3869748    -0.8967071    -0.2580047
C           3.1823753     0.3161921    -0.9428702
H           2.1773676     0.6009754    -1.2369457
C           4.2618878     1.1303017    -1.2799637
H           4.0766941     2.0641654    -1.8050512
30
385_C14H15N_14-0-6-25 (135,) energy =    -597.2670859
C           1.0870928    -1.4975836     0.6051455
H           1.1990855    -2.2120554     1.4334480
C           0.6745627    -0.1432402     1.2124239
H          -0.2797574    -0.2645126     1.7351971
H           0.5438173     0.6148957     0.4334019
H           1.4087423     0.2330948     1.9278230
N           2.3529892    -1.4670195    -0.1688795
H           2.2083451    -1.8368705    -1.1001225
C          -2.1449960    -2.9274063    -1.9141468
H          -2.9580962    -3.2826733    -2.5414300
C          -1.8398421    -3.5822676    -0.7209854
H          -2.4125645    -4.4538410    -0.4149640
C          -0.7909507    -3.1253846     0.0799808
H          -0.5523553    -3.6451773     1.0051681
C          -0.0362142    -2.0075385    -0.2923819
C          -0.3510708    -1.3580270    -1.4956355
H           0.2231300    -0.4871073    -1.8032426
C          -1.3957189    -1.8130615    -2.2995475
H          -1.6266166    -1.2959488    -3.2272988
C           5.2572230     1.6061647    -0.2444025
H           6.0145483     2.3843152    -0.2690199
C           4.7263150     1.0948367    -1.4300509
H           5.0675996     1.4759272    -2.3894550
C           3.7444671     0.1067911    -1.3991378
H           3.3261598    -0.2715361    -2.3302184
C           3.2801558    -0.4139566    -0.1767671
C           3.8465803     0.0835657     1.0124015
H           3.5539159    -0.3484504     1.9643613
C           4.8080407     1.0913118     0.9736609
H           5.2262129     1.4607284     1.9068885
30
385_C14H15N_14-0-6-25 (150,) energy =    -597.2693263
C           1.0684089    -1.3633732     0.4840509
H           1.2643057    -2.0259064     1.3385738
C           0.6249846     0.0058213     1.0404371
H          -0.2750395    -0.1245524     1.6507017
H           0.3889045     0.7013753     0.2282520
H           1.3967981     0.4664997     1.6611299
N           2.2829826    -1.3162205    -0.3634994
H           2.0594604    -1.5088620    -1.3321109
C          -2.1964107    -3.0909226    -1.7943703
H          -3.0170673    -3.5215804    -2.3616871
C          -1.7549778    -3.7029030    -0.6211980
H          -2.2285308    -4.6161409    -0.2705351
C          -0.6971684    -3.1484851     0.1024399
H          -0.3518140    -3.6354552     1.0114385
C          -0.0691100    -1.9740584    -0.3266703
C          -0.5220962    -1.3675975    -1.5080239
H          -0.0534850    -0.4511477    -1.8596374
C          -1.5748211    -1.9209730    -2.2365645
H          -1.9125164    -1.4358026    -3.1486520
C           5.4312849     1.4863281    -0.0629619
H           6.2508783     2.1953225     0.0085093
C           4.9002079     1.1384258    -1.3066088
H           5.3042843     1.5783249    -2.2151314
C           3.8403285     0.2394914    -1.3995247
H           3.4269197    -0.0118489    -2.3747386
C           3.2921856    -0.3526394    -0.2465288
C           3.8505481    -0.0163682     1.0018258
H           3.4798124    -0.4976493     1.9021018
C           4.8961745     0.9006878     1.0863564
H           5.3071237     1.1460032     2.0626704
30
385_C14H15N_14-0-6-25 (165,) energy =    -597.2717784
C           1.0163793    -1.2095387     0.3819775
H           1.3000809    -1.8266327     1.2449477
C           0.5317678     0.1565537     0.9126934
H          -0.3174779     0.0125697     1.5895099
H           0.2069417     0.8048375     0.0919782
H           1.3227748     0.6784912     1.4569801
N           2.1807312    -1.1276955    -0.5230435
H           1.9018308    -1.1518238    -1.4965083
C          -2.1945127    -3.2638747    -1.6926770
H          -2.9992786    -3.7786797    -2.2104748
C          -1.5976884    -3.8406590    -0.5714078
H          -1.9334628    -4.8097916    -0.2119326
C          -0.5619630    -3.1773066     0.0892180
H          -0.0950096    -3.6366915     0.9572427
C          -0.1105733    -1.9279001    -0.3505854
C          -0.7198646    -1.3577146    -1.4781897
H          -0.3939053    -0.3841684    -1.8375489
C          -1.7503485    -2.0199546    -2.1456733
H          -2.2100420    -1.5612624    -3.0172116
C           5.5700580     1.3192313     0.0806043
H           6.4508634     1.9370193     0.2285777
C           5.0596392     1.1042284    -1.2017270
H           5.5431288     1.5570590    -2.0639273
C           3.9244061     0.3215607    -1.3932236
H           3.5328984     0.1693365    -2.3975380
C           3.2712172    -0.2822046    -0.3018905
C           3.8004544    -0.0744051     0.9865785
H           3.3379895    -0.5554539     1.8433171
C           4.9294678     0.7225434     1.1679424
H           5.3164179     0.8685852     2.1735539
30
385_C14H15N_14-0-6-25 (180,) energy =    -597.2734591
C           0.9658969    -1.0502836     0.3065862
H           1.3376627    -1.6361864     1.1564589
C           0.4275599     0.2896857     0.8493142
H          -0.3635752     0.1124164     1.5864183
H           0.0098206     0.9035038     0.0441241
H           1.2253624     0.8646021     1.3281154
N           2.0803002    -0.8989561    -0.6408992
H           1.7701649    -0.7784195    -1.5974327
C          -2.1319297    -3.4059944    -1.6135615
H          -2.9060913    -3.9977701    -2.0945042
C          -1.3940409    -3.9389984    -0.5560809
H          -1.5893397    -4.9504503    -0.2096768
C          -0.3993213    -3.1761123     0.0578235
H           0.1779019    -3.6009049     0.8757366
C          -0.1288298    -1.8699884    -0.3657513
C          -0.8791087    -1.3445223    -1.4276739
H          -0.6975844    -0.3290010    -1.7725936
C          -1.8694103    -2.1059382    -2.0493206
H          -2.4399519    -1.6807596    -2.8709150
C           5.7012088     1.1179942     0.1658153
H           6.6404781     1.6259956     0.3632025
C           5.2082869     1.0129617    -1.1376635
H           5.7653146     1.4415205    -1.9673056
C           4.0017448     0.3693280    -1.3921794
H           3.6293559     0.2964951    -2.4124963
C           3.2499391    -0.1998924    -0.3447588
C           3.7544254    -0.0951895     0.9660169
H           3.2105187    -0.5353417     1.7958258
C           4.9626950     0.5577161     1.2082975
H           5.3285709     0.6242637     2.2301025
