30
385_C14H15N_6-0-14-12 (-165,) energy =    -597.2735046
C           0.9913684    -1.1236384     0.2758089
H           1.6319470    -1.8696172     0.7633764
C           0.4928771    -0.1429446     1.3564662
H          -0.0047084    -0.6559929     2.1854823
H          -0.2148405     0.5760748     0.9277061
H           1.3414120     0.4108835     1.7698262
N           1.8247405    -0.4528219    -0.7233113
H           1.2829745     0.1569040    -1.3269563
C          -2.1765452    -3.4033604    -1.6572612
H          -2.9640899    -3.9792337    -2.1359088
C          -2.2490348    -3.1048055    -0.2958346
H          -3.0941491    -3.4498596     0.2943256
C          -1.2401339    -2.3615647     0.3165893
H          -1.3208978    -2.1459950     1.3775382
C          -0.1359633    -1.8979620    -0.4151534
C          -0.0676755    -2.2195124    -1.7779489
H           0.7935558    -1.8987823    -2.3542200
C          -1.0792754    -2.9591305    -2.3938843
H          -1.0031869    -3.1913465    -3.4531375
C           5.6945429     1.0928980    -0.0148387
H           6.6931100     1.4873483     0.1478460
C           4.8933023     1.5856425    -1.0485945
H           5.2660152     2.3717323    -1.7006854
C           3.6130014     1.0842210    -1.2550117
H           3.0011567     1.4762410    -2.0655386
C           3.0913509     0.0641801    -0.4337567
C           3.9010486    -0.4240875     0.6086075
H           3.5384794    -1.2073365     1.2658925
C           5.1842173     0.0876294     0.8055620
H           5.7879564    -0.3093598     1.6180403
30
385_C14H15N_6-0-14-12 (-150,) energy =    -597.2740745
C           1.0141698    -1.1887270     0.2898017
H           1.6794951    -1.9662449     0.6890976
C           0.5730256    -0.2981272     1.4657743
H           0.1452267    -0.8844290     2.2858800
H          -0.1739869     0.4359214     1.1419724
H           1.4378984     0.2428836     1.8608319
N           1.7969315    -0.4499774    -0.7042822
H           1.2219285     0.1514948    -1.2840170
C          -2.1901196    -3.3503769    -1.7134177
H          -2.9827172    -3.8997665    -2.2144320
C          -2.3711149    -2.8798585    -0.4132683
H          -3.3084553    -3.0609166     0.1064870
C          -1.3536676    -2.1708735     0.2288247
H          -1.5226423    -1.8143981     1.2395946
C          -0.1353123    -1.9155647    -0.4153361
C           0.0369167    -2.4023094    -1.7204431
H           0.9789173    -2.2204278    -2.2278974
C          -0.9789570    -3.1090658    -2.3637822
H          -0.8214363    -3.4732845    -3.3758428
C           5.6610723     1.1412699    -0.0809529
H           6.6579229     1.5480916     0.0603863
C           4.8192114     1.6468943    -1.0756521
H           5.1585301     2.4554664    -1.7184534
C           3.5409783     1.1300849    -1.2546550
H           2.8972613     1.5322830    -2.0348908
C           3.0621959     0.0806929    -0.4439768
C           3.9125501    -0.4205142     0.5596556
H           3.5826113    -1.2255575     1.2078282
C           5.1932385     0.1070966     0.7287783
H           5.8289036    -0.3002230     1.5112636
30
385_C14H15N_6-0-14-12 (-135,) energy =    -597.2744257
C           1.0341964    -1.2458808     0.3096145
H           1.7219170    -2.0387261     0.6337651
C           0.6335824    -0.4361080     1.5538138
H           0.2047016    -1.0762311     2.3326925
H          -0.0995893     0.3385217     1.3006721
H           1.5159869     0.0568575     1.9718543
N           1.7663772    -0.4418754    -0.6742060
H           1.1598783     0.1592098    -1.2202846
C          -2.2023915    -3.2928206    -1.7511217
H          -3.0024600    -3.8130480    -2.2710272
C          -2.4508440    -2.6568130    -0.5363363
H          -3.4475105    -2.6768410    -0.1030246
C          -1.4224170    -1.9865387     0.1323851
H          -1.6416454    -1.4990146     1.0765484
C          -0.1295690    -1.9402004    -0.4019773
C           0.1076686    -2.5860563    -1.6261042
H           1.1054634    -2.5502810    -2.0535336
C          -0.9155930    -3.2552200    -2.2943357
H          -0.7084196    -3.7487265    -3.2404759
C           5.6210650     1.1955701    -0.1242108
H           6.6150862     1.6152479    -0.0018498
C           4.7365604     1.7227497    -1.0695662
H           5.0396780     2.5608610    -1.6923494
C           3.4617187     1.1901368    -1.2247240
H           2.7844000     1.6091066    -1.9667010
C           3.0294337     0.1024297    -0.4385885
C           3.9229303    -0.4207804     0.5154478
H           3.6287195    -1.2559575     1.1424492
C           5.1995814     0.1232101     0.6610868
H           5.8690078    -0.3016533     1.4051953
30
385_C14H15N_6-0-14-12 (-120,) energy =    -597.2743512
C           1.0693143    -1.3041927     0.3239985
H           1.7761091    -2.1048008     0.5788845
C           0.7044031    -0.5689307     1.6234714
H           0.2540623    -1.2485498     2.3556971
H           0.0007973     0.2492516     1.4318435
H           1.6045231    -0.1352990     2.0685390
N           1.7523365    -0.4396278    -0.6450242
H           1.1163545     0.1632769    -1.1535877
C          -2.2051200    -3.2369712    -1.7783265
H          -3.0144466    -3.7262836    -2.3137047
C          -2.4781073    -2.4399527    -0.6687224
H          -3.5030210    -2.3024231    -0.3339209
C          -1.4366093    -1.8113158     0.0214717
H          -1.6729847    -1.1990824     0.8857575
C          -0.1085771    -1.9718288    -0.3865877
C           0.1527165    -2.7741087    -1.5087967
H           1.1800360    -2.8927514    -1.8430840
C          -0.8816817    -3.4026497    -2.1974138
H          -0.6568150    -4.0227854    -3.0613255
C           5.5895107     1.2545099    -0.1513698
H           6.5785957     1.6894273    -0.0429843
C           4.6644688     1.8014508    -1.0453146
H           4.9306413     2.6707587    -1.6416959
C           3.3959097     1.2491766    -1.1821957
H           2.6868625     1.6842351    -1.8841681
C           3.0108130     0.1210900    -0.4288806
C           3.9454230    -0.4227600     0.4730425
H           3.6886751    -1.2899805     1.0725293
C           5.2150347     0.1416042     0.6007645
H           5.9168246    -0.2997529     1.3043658
30
385_C14H15N_6-0-14-12 (-105,) energy =    -597.2740052
C           1.1043428    -1.3607332     0.3199597
H           1.8294226    -2.1637335     0.5031329
C           0.7718423    -0.7089414     1.6726747
H           0.3151379    -1.4303181     2.3596084
H           0.0845123     0.1354675     1.5502884
H           1.6850934    -0.3228743     2.1346910
N           1.7379691    -0.4314211    -0.6222107
H           1.0750982     0.1704640    -1.0957299
C          -2.2114616    -3.1906702    -1.8044900
H          -3.0316259    -3.6516882    -2.3483983
C          -2.4690501    -2.2395941    -0.8191530
H          -3.4925918    -1.9536207    -0.5910867
C          -1.4138837    -1.6489342    -0.1166802
H          -1.6379775    -0.9165765     0.6526762
C          -0.0878759    -2.0029513    -0.3871507
C           0.1577301    -2.9568414    -1.3864420
H           1.1854845    -3.2276932    -1.6159948
C          -0.8901695    -3.5488111    -2.0873140
H          -0.6779303    -4.2900068    -2.8534204
C           5.5535640     1.3192161    -0.1698699
H           6.5366924     1.7697344    -0.0715230
C           4.5927833     1.8822131    -1.0149232
H           4.8248793     2.7798601    -1.5829223
C           3.3318390     1.3099756    -1.1389994
H           2.5946917     1.7578292    -1.8029339
C           2.9903332     0.1450873    -0.4211542
C           3.9611855    -0.4155731     0.4311377
H           3.7389811    -1.3118645     1.0009987
C           5.2225819     0.1693626     0.5462681
H           5.9528832    -0.2854998     1.2112241
30
385_C14H15N_6-0-14-12 (-90,) energy =    -597.2737844
C           1.1385564    -1.4063888     0.2899116
H           1.8802021    -2.2063934     0.4023837
C           0.8331685    -0.8470462     1.6912696
H           0.4067696    -1.6215544     2.3386413
H           0.1274007    -0.0106976     1.6449451
H           1.7512838    -0.4740506     2.1549189
N           1.7269785    -0.4107067    -0.6127839
H           1.0411327     0.1979835    -1.0424543
C          -2.2349677    -3.1603958    -1.8053209
H          -3.0721400    -3.6013031    -2.3398419
C          -2.4326363    -2.0538633    -0.9800202
H          -3.4262239    -1.6275066    -0.8685943
C          -1.3569683    -1.4910590    -0.2881781
H          -1.5342846    -0.6355254     0.3573146
C          -0.0679863    -2.0242355    -0.4112308
C           0.1173682    -3.1325589    -1.2490142
H           1.1152465    -3.5498211    -1.3626072
C          -0.9532604    -3.6996329    -1.9382671
H          -0.7879234    -4.5624816    -2.5780989
C           5.5200682     1.3891569    -0.1665517
H           6.4969510     1.8532891    -0.0692610
C           4.5271602     1.9761498    -0.9563941
H           4.7276344     2.9066354    -1.4820353
C           3.2743956     1.3860259    -1.0789770
H           2.5122166     1.8531739    -1.7000084
C           2.9729069     0.1788654    -0.4147456
C           3.9762787    -0.4061308     0.3819190
H           3.7859064    -1.3353416     0.9089648
C           5.2291010     0.1971005     0.4959051
H           5.9849105    -0.2773727     1.1172476
30
385_C14H15N_6-0-14-12 (-75,) energy =    -597.2738075
C           1.1856784    -1.4633571     0.2371449
H           1.9410129    -2.2573711     0.2760670
C           0.9015749    -1.0072315     1.6819819
H           0.5403361    -1.8452764     2.2886369
H           0.1444268    -0.2162666     1.7086221
H           1.8116395    -0.6112277     2.1427999
N           1.7298349    -0.3988345    -0.6111480
H           1.0251546     0.2026329    -1.0184630
C          -2.2746275    -3.1299922    -1.7833457
H          -3.1379032    -3.5473744    -2.2946122
C          -2.3682298    -1.8934959    -1.1429032
H          -3.3057288    -1.3436047    -1.1528162
C          -1.2607366    -1.3609642    -0.4809485
H          -1.3558401    -0.4016292     0.0221406
C          -0.0402965    -2.0502775    -0.4530272
C           0.0405814    -3.2873189    -1.1035478
H           0.9820303    -3.8316938    -1.0970223
C          -1.0655946    -3.8269403    -1.7608483
H          -0.9817999    -4.7905811    -2.2564028
C           5.4839192     1.4710447    -0.1357030
H           6.4506553     1.9542754    -0.0304473
C           4.4654706     2.0692157    -0.8836448
H           4.6358405     3.0275514    -1.3683011
C           3.2256159     1.4547746    -1.0165716
H           2.4435357     1.9312916    -1.6049377
C           2.9629035     0.2110221    -0.4050107
C           3.9922548    -0.3855398     0.3491266
H           3.8319432    -1.3432652     0.8333197
C           5.2317091     0.2426071     0.4740688
H           6.0080931    -0.2417173     1.0615490
30
385_C14H15N_6-0-14-12 (-60,) energy =    -597.2735737
C           0.7288895    -0.5622936    -0.0837014
H           0.6865612    -0.4747044     1.0086676
C           0.3777944     0.8130313    -0.6916079
H          -0.6122738     1.1419588    -0.3561253
H           0.3656891     0.7621238    -1.7859359
H           1.1141509     1.5665646    -0.3956266
N           2.0766606    -1.0158007    -0.4302303
H           2.1434669    -1.5216639    -1.3027865
C          -2.1508604    -3.5976732    -1.2333039
H          -2.8719367    -4.3583754    -1.5198721
C          -1.3286747    -3.0105555    -2.1970852
H          -1.4086708    -3.3111752    -3.2384827
C          -0.4060356    -2.0315683    -1.8281660
H           0.2126986    -1.5718193    -2.5964713
C          -0.2817416    -1.6266210    -0.4911204
C          -1.1092082    -2.2259402     0.4646907
H          -1.0212101    -1.9293523     1.5073100
C          -2.0399013    -3.2003236     0.0993625
H          -2.6734573    -3.6520688     0.8581122
C           5.6928829     0.7913941     0.7783571
H           6.6306724     1.2419806     1.0892703
C           5.6513649    -0.0968511    -0.3004149
H           6.5634297    -0.3443694    -0.8382032
C           4.4514820    -0.6715378    -0.7033554
H           4.4358557    -1.3632128    -1.5438133
C           3.2452623    -0.3785856    -0.0327524
C           3.2932494     0.5184109     1.0526802
H           2.3886791     0.7675827     1.5976324
C           4.5046362     1.0881310     1.4451805
H           4.5117478     1.7763462     2.2870826
30
385_C14H15N_6-0-14-12 (-45,) energy =    -597.2725501
C           0.7726611    -0.6286240    -0.0750317
H           0.7747943    -0.6075982     1.0207820
C           0.3595686     0.7706515    -0.5871192
H          -0.6238312     1.0539480    -0.1953735
H           0.3013856     0.7731483    -1.6815564
H           1.0890073     1.5268786    -0.2801415
N           2.1175730    -1.0119345    -0.4994637
H           2.1773664    -1.3965997    -1.4317525
C          -2.1929006    -3.5794824    -1.2404960
H          -2.9401113    -4.3147358    -1.5263288
C          -1.2113563    -3.1840644    -2.1503655
H          -1.1922967    -3.6088092    -3.1505880
C          -0.2509892    -2.2410239    -1.7822769
H           0.4874766    -1.9358357    -2.5207894
C          -0.2492006    -1.6773536    -0.4991241
C          -1.2383022    -2.0857584     0.4038869
H          -1.2483314    -1.6670060     1.4078205
C          -2.2047998    -3.0239106     0.0392588
H          -2.9609924    -3.3262086     0.7589666
C           5.7067101     0.8161982     0.7632094
H           6.6382401     1.2713173     1.0861115
C           5.6600350     0.0291983    -0.3912410
H           6.5615092    -0.1340811    -0.9768682
C           4.4677739    -0.5508959    -0.8086649
H           4.4482310    -1.1642141    -1.7079139
C           3.2752690    -0.3660870    -0.0780105
C           3.3281457     0.4303828     1.0825859
H           2.4345161     0.5980689     1.6745497
C           4.5317747     1.0067034     1.4895019
H           4.5428879     1.6159644     2.3901192
30
385_C14H15N_6-0-14-12 (-30,) energy =    -597.2720178
C           0.8020335    -0.6293465    -0.1358588
H           0.8658717    -0.6346424     0.9566309
C           0.3223309     0.7688451    -0.5844412
H          -0.6546328     1.0106630    -0.1518309
H           0.2233793     0.8045799    -1.6759503
H           1.0408024     1.5356043    -0.2756318
N           2.1392373    -0.9466313    -0.6351420
H           2.1694609    -1.0361286    -1.6438344
C          -2.2138424    -3.5778718    -1.1770648
H          -2.9813127    -4.3034482    -1.4324150
C          -1.1031843    -3.4084277    -2.0032112
H          -0.9998761    -4.0035711    -2.9068176
C          -0.1141039    -2.4788871    -1.6741676
H           0.7467910    -2.3839476    -2.3296697
C          -0.2149136    -1.7031787    -0.5135014
C          -1.3356296    -1.8859549     0.3086409
H          -1.4300533    -1.2969123     1.2188769
C          -2.3264165    -2.8116531    -0.0154997
H          -3.1819797    -2.9390228     0.6426046
C           5.7220756     0.7695137     0.8146011
H           6.6524504     1.1934552     1.1804680
C           5.6452376     0.2184973    -0.4676144
H           6.5211465     0.2103654    -1.1116815
C           4.4534971    -0.3213141    -0.9377465
H           4.4101605    -0.7511694    -1.9370190
C           3.2936059    -0.3330596    -0.1362059
C           3.3768815     0.2273827     1.1519927
H           2.5098698     0.2431144     1.8037280
C           4.5788868     0.7662815     1.6125775
H           4.6132133     1.1918417     2.6125928
30
385_C14H15N_6-0-14-12 (-15,) energy =    -597.2725451
C           0.7978006    -0.6316375    -0.1114191
H           0.9027721    -0.6836984     0.9772907
C           0.2936765     0.7808541    -0.4797779
H          -0.6674014     1.0028609    -0.0042723
H           0.1572643     0.8641681    -1.5646365
H           1.0205867     1.5356819    -0.1617598
N           2.1184989    -0.9048785    -0.6747652
H           2.1078982    -0.9044044    -1.6888929
C          -2.1952255    -3.5909934    -1.1973568
H          -2.9563508    -4.3186178    -1.4657171
C          -0.9769522    -3.5639792    -1.8736989
H          -0.7807768    -4.2749776    -2.6721344
C           0.0039116    -2.6307263    -1.5269926
H           0.9582102    -2.6541840    -2.0429172
C          -0.2165948    -1.7064797    -0.5003238
C          -1.4453609    -1.7483734     0.1759008
H          -1.6349211    -1.0464834     0.9854517
C          -2.4246813    -2.6793659    -0.1641880
H          -3.3652985    -2.6960132     0.3802217
C           5.7398300     0.7383779     0.7674258
H           6.6795039     1.1445567     1.1296745
C           5.6137819     0.3024741    -0.5544550
H           6.4600956     0.3675697    -1.2338481
C           4.4096183    -0.2142061    -1.0191614
H           4.3277316    -0.5526820    -2.0506064
C           3.2868906    -0.3177544    -0.1729550
C           3.4198949     0.1261393     1.1555013
H           2.5830609     0.0660335     1.8431347
C           4.6335290     0.6433830     1.6104686
H           4.7065680     0.9779976     2.6424282
30
385_C14H15N_6-0-14-12 (0,) energy =    -597.2730664
C           0.7748272    -0.6195123    -0.0535768
H           0.9128489    -0.7349586     1.0273301
C           0.2728221     0.8151808    -0.3247436
H          -0.6638834     1.0300669     0.1991307
H           0.0979265     0.9599248    -1.3974507
H           1.0228835     1.5410071     0.0058886
N           2.0785159    -0.8592655    -0.6715769
H           2.0283952    -0.8179934    -1.6844067
C          -2.1733655    -3.5937790    -1.2369858
H          -2.9178418    -4.3295642    -1.5289566
C          -0.8730384    -3.6706969    -1.7318766
H          -0.5946478    -4.4727610    -2.4107257
C           0.0847295    -2.7254491    -1.3543476
H           1.1019247    -2.8216354    -1.7182329
C          -0.2413502    -1.6808067    -0.4818750
C          -1.5524731    -1.6205080     0.0164322
H          -1.8308541    -0.8309152     0.7099017
C          -2.5079246    -2.5650249    -0.3533956
H          -3.5148079    -2.4983229     0.0506365
C           5.7390544     0.7427062     0.7140597
H           6.6889888     1.1384490     1.0607788
C           5.5601375     0.3915450    -0.6266832
H           6.3747133     0.5131041    -1.3364197
C           4.3424618    -0.1110686    -1.0718562
H           4.2182088    -0.3816416    -2.1189852
C           3.2605385    -0.2860709    -0.1857583
C           3.4464384     0.0721406     1.1621314
H           2.6418583    -0.0473735     1.8799284
C           4.6723427     0.5773430     1.5966623
H           4.7873779     0.8452230     2.6441424
30
385_C14H15N_6-0-14-12 (15,) energy =    -597.2734293
C           0.7710070    -0.6562851     0.0168926
H           0.9459095    -0.8659555     1.0797530
C           0.2778365     0.7997540    -0.1082543
H          -0.6065754     0.9936974     0.5066358
H           0.0249260     1.0319449    -1.1493374
H           1.0668198     1.4846300     0.2176542
N           2.0533359    -0.8529355    -0.6607255
H           1.9620739    -0.8074698    -1.6703990
C          -2.1426198    -3.6010267    -1.3291097
H          -2.8716573    -4.3355264    -1.6606831
C          -0.7887971    -3.7711927    -1.6148712
H          -0.4535414    -4.6442406    -2.1690654
C           0.1472389    -2.8265947    -1.1884163
H           1.2008460    -2.9810631    -1.3947407
C          -0.2498923    -1.6885414    -0.4731501
C          -1.6152741    -1.5332008    -0.1874081
H          -1.9599447    -0.6698745     0.3736581
C          -2.5509368    -2.4780183    -0.6076518
H          -3.6020673    -2.3333609    -0.3714899
C           5.7488350     0.7400456     0.6339291
H           6.7076143     1.1341093     0.9574314
C           5.5298964     0.4087393    -0.7060760
H           6.3221235     0.5441220    -1.4382735
C           4.3011298    -0.0918397    -1.1218127
H           4.1458267    -0.3473281    -2.1685276
C           3.2474116    -0.2840488    -0.2054854
C           3.4725632     0.0560407     1.1413578
H           2.6888384    -0.0741803     1.8801266
C           4.7100611     0.5580002     1.5460105
H           4.8560077     0.8112665     2.5932751
30
385_C14H15N_6-0-14-12 (30,) energy =    -597.2739900
C           0.7799269    -0.6880245     0.0779245
H           0.9991866    -0.9777301     1.1145493
C           0.2818551     0.7692716     0.0921014
H          -0.5511426     0.9122428     0.7883273
H          -0.0481889     1.0788060    -0.9063611
H           1.0941706     1.4310286     0.4068612
N           2.0345108    -0.8378463    -0.6632572
H           1.9006390    -0.7900765    -1.6674918
C          -2.1070817    -3.6006251    -1.3862602
H          -2.8248774    -4.3324095    -1.7472186
C          -0.7383073    -3.8663069    -1.4433399
H          -0.3823046    -4.8102501    -1.8482873
C           0.1816540    -2.9246152    -0.9817907
H           1.2448248    -3.1379703    -1.0247550
C          -0.2442365    -1.6965128    -0.4529318
C          -1.6220205    -1.4422891    -0.4021823
H          -1.9898084    -0.5025723    -0.0035221
C          -2.5441343    -2.3846169    -0.8615524
H          -3.6069795    -2.1623029    -0.8116553
C           5.7748943     0.7264158     0.5279043
H           6.7448763     1.1138838     0.8248678
C           5.5081161     0.4216668    -0.8098581
H           6.2741423     0.5712030    -1.5668052
C           4.2650211    -0.0700818    -1.1919715
H           4.0725951    -0.3048846    -2.2373039
C           3.2440889    -0.2802346    -0.2426610
C           3.5171141     0.0338891     1.1020667
H           2.7586532    -0.1096672     1.8644043
C           4.7688720     0.5268833     1.4724460
H           4.9520449     0.7597723     2.5186170
30
385_C14H15N_6-0-14-12 (45,) energy =    -597.2744094
C           0.7792917    -0.7118312     0.1359813
H           1.0383825    -1.0730996     1.1405420
C           0.2706133     0.7326318     0.2749849
H          -0.5635994     0.8023213     0.9817536
H          -0.0619263     1.1279514    -0.6918915
H           1.0772774     1.3728565     0.6435496
N           2.0053609    -0.8026424    -0.6630922
H           1.8313551    -0.7301807    -1.6590440
C          -2.0800964    -3.5862430    -1.4391968
H          -2.7878069    -4.3136595    -1.8278881
C          -0.7386640    -3.9331309    -1.2599094
H          -0.3966601    -4.9347880    -1.5076513
C           0.1669682    -2.9978234    -0.7632528
H           1.2109077    -3.2672126    -0.6328749
C          -0.2453302    -1.6967311    -0.4328208
C          -1.5917981    -1.3612616    -0.6174358
H          -1.9460096    -0.3647754    -0.3750978
C          -2.5017664    -2.2979519    -1.1158243
H          -3.5419674    -2.0137624    -1.2525562
C           5.7773060     0.7404817     0.4488603
H           6.7553169     1.1232061     0.7249305
C           5.4622137     0.4876701    -0.8893058
H           6.1986370     0.6732623    -1.6673770
C           4.2088729     0.0021634    -1.2448907
H           3.9786005    -0.1924191    -2.2908092
C           3.2256510    -0.2534997    -0.2671754
C           3.5470339     0.0080860     1.0783748
H           2.8184850    -0.1722573     1.8618973
C           4.8086824     0.4954066     1.4214601
H           5.0296033     0.6873782     2.4686687
30
385_C14H15N_6-0-14-12 (60,) energy =    -597.2743469
C           0.7894025    -0.7465339     0.1919413
H           1.0881641    -1.1698141     1.1599389
C           0.2691805     0.6777453     0.4427044
H          -0.5836852     0.6776446     1.1307602
H          -0.0407983     1.1571390    -0.4929092
H           1.0624003     1.2894551     0.8819853
N           1.9838217    -0.7731760    -0.6599893
H           1.7693207    -0.6683306    -1.6446555
C          -2.0571169    -3.5665008    -1.4881539
H          -2.7596317    -4.2833585    -1.9048772
C          -0.7906876    -3.9839189    -1.0680053
H          -0.5043230    -5.0287835    -1.1558514
C           0.1068573    -3.0627622    -0.5340979
H           1.0956362    -3.3853124    -0.2186184
C          -0.2384393    -1.7079177    -0.4059746
C          -1.5084065    -1.3023771    -0.8286275
H          -1.8087482    -0.2634670    -0.7383974
C          -2.4117483    -2.2247288    -1.3668066
H          -3.3935888    -1.8882240    -1.6896270
C           5.7761886     0.7711007     0.3746488
H           6.7593181     1.1551208     0.6299338
C           5.4116333     0.5771575    -0.9608108
H           6.1138925     0.8105272    -1.7574233
C           4.1517445     0.0901820    -1.2902054
H           3.8827297    -0.0580955    -2.3344482
C           3.2115741    -0.2263127    -0.2880565
C           3.5830841    -0.0247653     1.0551145
H           2.8888054    -0.2546126     1.8567039
C           4.8506179     0.4649447     1.3717070
H           5.1107277     0.6098643     2.4175094
30
385_C14H15N_6-0-14-12 (75,) energy =    -597.2739623
C           0.8090256    -0.7984644     0.2382812
H           1.1493843    -1.2783147     1.1644014
C           0.2722933     0.5966060     0.6004624
H          -0.5817618     0.5275697     1.2836045
H          -0.0426490     1.1479857    -0.2923471
H           1.0569641     1.1834110     1.0867878
N           1.9684508    -0.7500809    -0.6599293
H           1.7150737    -0.6143322    -1.6311630
C          -2.0472240    -3.5447526    -1.5383822
H          -2.7521257    -4.2428837    -1.9819359
C          -0.9001693    -4.0173698    -0.8945464
H          -0.7086136    -5.0855731    -0.8346851
C          -0.0007262    -3.1193066    -0.3248086
H           0.8961613    -3.4882618     0.1670422
C          -0.2254905    -1.7357004    -0.3823118
C          -1.3771961    -1.2748064    -1.0291185
H          -1.5847963    -0.2105744    -1.0830960
C          -2.2819242    -2.1725968    -1.6041813
H          -3.1719051    -1.7943745    -2.1004988
C           5.7702988     0.8135524     0.3065091
H           6.7554446     1.2036115     0.5442898
C           5.3610917     0.6713403    -1.0225989
H           6.0307611     0.9517147    -1.8320354
C           4.0985887     0.1763552    -1.3290457
H           3.7950479     0.0684477    -2.3687534
C           3.1997634    -0.1998517    -0.3094548
C           3.6164152    -0.0511886     1.0274986
H           2.9554086    -0.3293917     1.8418309
C           4.8862533     0.4470053     1.3206788
H           5.1814330     0.5502820     2.3621181
30
385_C14H15N_6-0-14-12 (90,) energy =    -597.2737905
C           0.8349299    -0.8510810     0.2677848
H           1.2186153    -1.3750580     1.1514596
C           0.2744580     0.5060442     0.7314823
H          -0.5486312     0.3678427     1.4415525
H          -0.0959583     1.0974404    -0.1127199
H           1.0601666     1.0900761     1.2200214
N           1.9580156    -0.7230927    -0.6668187
H           1.6715959    -0.5649245    -1.6249760
C          -2.0499071    -3.5202052    -1.5760814
H          -2.7638610    -4.1957034    -2.0396784
C          -1.0527321    -4.0195723    -0.7352754
H          -0.9862925    -5.0869967    -0.5418281
C          -0.1403428    -3.1491705    -0.1407400
H           0.6397021    -3.5434975     0.5064207
C          -0.2066353    -1.7677626    -0.3671048
C          -1.2102532    -1.2795128    -1.2132300
H          -1.2913436    -0.2129851    -1.4037211
C          -2.1245225    -2.1481241    -1.8145223
H          -2.8977247    -1.7489208    -2.4658508
C           5.7615201     0.8686575     0.2396049
H           6.7470509     1.2672022     0.4611160
C           5.3105838     0.7739877    -1.0802619
H           5.9476350     1.1003615    -1.8987642
C           4.0476649     0.2680414    -1.3660193
H           3.7114887     0.1974742    -2.3988983
C           3.1899874    -0.1672227    -0.3342312
C           3.6486901    -0.0666143     0.9936999
H           3.0207639    -0.3912354     1.8169589
C           4.9185050     0.4432838     1.2657208
H           5.2466366     0.5085502     2.3003794
30
385_C14H15N_6-0-14-12 (105,) energy =    -597.2738108
C           0.8776104    -0.9287306     0.2888236
H           1.2959580    -1.4945545     1.1298511
C           0.2956807     0.3867284     0.8435743
H          -0.4791917     0.1823247     1.5910211
H          -0.1510003     0.9914253     0.0470399
H           1.0828553     0.9843728     1.3132498
N           1.9667241    -0.7227751    -0.6704113
H           1.6539825    -0.5518954    -1.6175748
C          -2.0881060    -3.4828726    -1.5858228
H          -2.8266806    -4.1259216    -2.0568221
C          -1.2464828    -3.9880075    -0.5937233
H          -1.3252573    -5.0281647    -0.2886663
C          -0.2988412    -3.1593386     0.0083640
H           0.3595387    -3.5615112     0.7748509
C          -0.1783379    -1.8147430    -0.3618486
C          -1.0312652    -1.3185424    -1.3578323
H          -0.9664047    -0.2758576    -1.6599988
C          -1.9759609    -2.1451316    -1.9679600
H          -2.6280871    -1.7415674    -2.7381807
C           5.7449905     0.9484894     0.1934745
H           6.7240401     1.3685303     0.4037182
C           5.2601254     0.8905708    -1.1164786
H           5.8639637     1.2674673    -1.9384592
C           4.0053916     0.3571535    -1.3877823
H           3.6428338     0.3160599    -2.4133364
C           3.1902291    -0.1434401    -0.3510390
C           3.6832643    -0.0803271     0.9669942
H           3.0889688    -0.4570547     1.7929929
C           4.9443753     0.4578886     1.2244218
H           5.2997245     0.4928938     2.2515381
30
385_C14H15N_6-0-14-12 (120,) energy =    -597.2736041
C           0.9277718    -0.9981507     0.2716476
H           1.3793937    -1.6006465     1.0688937
C           0.3184371     0.2681468     0.9112028
H          -0.4196029    -0.0015941     1.6750846
H          -0.1841591     0.8820368     0.1557472
H           1.0976266     0.8776588     1.3792250
N           1.9846340    -0.7016614    -0.6966951
H           1.6595961    -0.5212829    -1.6367723
C          -2.1400219    -3.4360622    -1.5926504
H          -2.9108928    -4.0455710    -2.0563341
C          -1.4330037    -3.9151941    -0.4896194
H          -1.6499246    -4.9020032    -0.0892050
C          -0.4409648    -3.1305547     0.1013821
H           0.1107942    -3.5148850     0.9561317
C          -0.1391155    -1.8575077    -0.3944522
C          -0.8656892    -1.3823503    -1.4960345
H          -0.6696755    -0.3865090    -1.8888091
C          -1.8521364    -2.1656645    -2.0953634
H          -2.4008894    -1.7806002    -2.9508694
C           5.7387044     1.0181656     0.1712549
H           6.7113325     1.4524836     0.3822098
C           5.2334700     0.9996205    -1.1322048
H           5.8148629     1.4217979    -1.9483503
C           3.9869398     0.4480952    -1.4044804
H           3.6085063     0.4383569    -2.4251258
C           3.2002882    -0.1111248    -0.3753368
C           3.7140187    -0.0878571     0.9363371
H           3.1424253    -0.5102551     1.7561786
C           4.9666844     0.4692921     1.1945806
H           5.3382444     0.4724217     2.2165534
30
385_C14H15N_6-0-14-12 (135,) energy =    -597.2727649
C           0.9781287    -1.0599664     0.2350506
H           1.4628321    -1.6969445     0.9846261
C           0.3532255     0.1537730     0.9602898
H          -0.3601417    -0.1758544     1.7239409
H          -0.1830301     0.7894747     0.2468139
H           1.1276862     0.7579904     1.4430962
N           2.0025126    -0.6758432    -0.7339117
H           1.6598290    -0.4428018    -1.6549926
C          -2.1957221    -3.4059505    -1.5712605
H          -2.9985827    -3.9898848    -2.0129447
C          -1.6075706    -3.8102466    -0.3725502
H          -1.9500090    -4.7128959     0.1265786
C          -0.5729042    -3.0596996     0.1878256
H          -0.1155296    -3.3865258     1.1190708
C          -0.1032893    -1.8977560    -0.4358744
C          -0.7171541    -1.4914172    -1.6290743
H          -0.4070057    -0.5726086    -2.1229711
C          -1.7468893    -2.2418960    -2.1972609
H          -2.2032461    -1.9121157    -3.1268751
C           5.7332704     1.0767088     0.1687296
H           6.6997953     1.5205881     0.3876552
C           5.1995267     1.1312497    -1.1222302
H           5.7520464     1.6206764    -1.9206685
C           3.9604794     0.5677997    -1.4040787
H           3.5596761     0.6161907    -2.4151083
C           3.2107754    -0.0778791    -0.3983103
C           3.7530973    -0.1279176     0.9010478
H           3.2106804    -0.6173910     1.7031517
C           4.9975360     0.4427086     1.1693418
H           5.3917807     0.3881048     2.1813015
30
385_C14H15N_6-0-14-12 (150,) energy =    -597.2720052
C           0.9586341    -1.0065797     0.1831113
H           1.5005607    -1.6492464     0.8839930
C           0.3201519     0.1508911     0.9830913
H          -0.3616212    -0.2287750     1.7520056
H          -0.2567841     0.8014221     0.3150450
H           1.0953258     0.7527380     1.4690935
N           1.9370788    -0.5368558    -0.7965216
H           1.5176266    -0.0119021    -1.5542157
C          -2.1824448    -3.4771445    -1.5208422
H          -2.9766596    -4.0945438    -1.9315650
C          -1.7360283    -3.6804244    -0.2140024
H          -2.1786434    -4.4604482     0.3999597
C          -0.7126579    -2.8883231     0.3050762
H          -0.3673137    -3.0584666     1.3229618
C          -0.1144588    -1.8791046    -0.4619361
C          -0.5717181    -1.6865998    -1.7710116
H          -0.1288020    -0.9247195    -2.4065274
C          -1.5949985    -2.4780765    -2.2967671
H          -1.9293805    -2.3134107    -3.3177508
C           5.7610487     0.9947091     0.1582970
H           6.7498185     1.3819704     0.3853532
C           5.1373558     1.2980174    -1.0553082
H           5.6405783     1.9274845    -1.7851454
C           3.8702936     0.8048975    -1.3447833
H           3.4000729     1.0455048    -2.2967191
C           3.1816396    -0.0161157    -0.4281825
C           3.8132169    -0.3133875     0.7939285
H           3.3208959    -0.9378639     1.5317527
C           5.0857097     0.1873320     1.0723842
H           5.5489490    -0.0598006     2.0245593
30
385_C14H15N_6-0-14-12 (165,) energy =    -597.2724970
C           0.9507149    -0.9982605     0.1963032
H           1.5316109    -1.6626943     0.8439444
C           0.3304986     0.1098810     1.0744786
H          -0.3158227    -0.3081602     1.8536542
H          -0.2790056     0.7846993     0.4615909
H           1.1195993     0.6962549     1.5570183
N           1.8821407    -0.4582007    -0.7927023
H           1.4198716     0.1556148    -1.4546656
C          -2.1527959    -3.4946979    -1.5462070
H          -2.9337590    -4.1212021    -1.9685430
C          -1.8996683    -3.5131314    -0.1727071
H          -2.4794850    -4.1594054     0.4811689
C          -0.8952394    -2.7093775     0.3629155
H          -0.7032423    -2.7375822     1.4336305
C          -0.1256321    -1.8672164    -0.4537785
C          -0.3764184    -1.8727258    -1.8298654
H           0.2331644    -1.2723563    -2.4970559
C          -1.3851094    -2.6744359    -2.3710562
H          -1.5614407    -2.6615964    -3.4435542
C           5.7617927     0.9793880     0.0902041
H           6.7631579     1.3446220     0.2977440
C           5.0596409     1.4224052    -1.0340529
H           5.5130300     2.1405306    -1.7128652
C           3.7762298     0.9572036    -1.2974543
H           3.2432948     1.3093643    -2.1790099
C           3.1501100     0.0253814    -0.4448345
C           3.8613447    -0.4136567     0.6868884
H           3.4204165    -1.1301296     1.3717228
C           5.1488563     0.0608044     0.9411686
H           5.6742728    -0.2969502     1.8233082
30
385_C14H15N_6-0-14-12 (180,) energy =    -597.2730863
C           0.9674478    -1.0514583     0.2396440
H           1.5790579    -1.7485567     0.8235207
C           0.3941066     0.0101104     1.2026703
H          -0.2058388    -0.4380877     2.0009506
H          -0.2458793     0.7130379     0.6563013
H           1.2110715     0.5728669     1.6659178
N           1.8524864    -0.4508964    -0.7581416
H           1.3494486     0.1721363    -1.3817422
C          -2.1595846    -3.4614734    -1.5910981
H          -2.9435618    -4.0660536    -2.0391115
C          -2.0831632    -3.3216005    -0.2035292
H          -2.8053666    -3.8219889     0.4364336
C          -1.0787058    -2.5429022     0.3681064
H          -1.0316389    -2.4531204     1.4504370
C          -0.1284086    -1.8850817    -0.4287751
C          -0.2033872    -2.0513755    -1.8166175
H           0.5486900    -1.5962783    -2.4518933
C          -1.2132318    -2.8264792    -2.3930752
H          -1.2510197    -2.9379500    -3.4737314
C           5.7332343     1.0306686     0.0355074
H           6.7346753     1.4080711     0.2195966
C           4.9702179     1.5228172    -1.0268097
H           5.3754814     2.2916508    -1.6800270
C           3.6861570     1.0428762    -1.2599877
H           3.1041178     1.4348121    -2.0923005
C           3.1224712     0.0457310    -0.4387997
C           3.8947752    -0.4432940     0.6308335
H           3.5020427    -1.2121123     1.2877777
C           5.1813525     0.0475442     0.8559361
H           5.7553725    -0.3493085     1.6897246
