32
371_C13H18O_15-17-27-28 (-165,) energy =    -581.4509812
C           0.4503544     0.7590127    -0.6025681
H           1.0981200     1.6438040    -0.6082254
H           0.4202815     0.3849149    -1.6351215
C          -0.9685336     1.1238605    -0.1350717
H          -0.9195101     1.5745004     0.8676042
H          -1.3935678     1.8886975    -0.7965861
C          -1.8782569    -0.1135748    -0.0905070
H          -2.0301811    -0.4858806    -1.1141277
H          -2.8693146     0.1568017     0.2950706
C          -1.2605519    -1.2296707     0.7663414
H          -1.8914468    -2.1265130     0.7392832
H          -1.2299560    -0.9045145     1.8169210
C           0.1613966    -1.5809314     0.2993615
H           0.1319255    -2.0026607    -0.7144378
H           0.6110597    -2.3416891     0.9481135
C           1.0585058    -0.3406548     0.2775056
H           1.1708883     0.0210626     1.3034642
O           2.3211324    -0.7813582    -0.2410093
C           6.1076549     0.9746966    -0.3435366
H           7.1034206     1.4050107    -0.3981286
C           5.1697718     1.4875978     0.5460060
H           5.4523391     2.3162228     1.1917506
C           3.8648677     0.9777520     0.6757495
C           2.9923447     1.5857534     1.7570513
H           3.5423931     2.3871916     2.2599510
H           2.7195252     0.8551274     2.5278412
H           2.0647900     2.0258823     1.3756705
C           3.5076117    -0.0909966    -0.1793984
C           4.4644416    -0.6273696    -1.0592642
H           4.1527621    -1.4627048    -1.6786586
C           5.7479684    -0.1071639    -1.1479912
H           6.4595144    -0.5432563    -1.8441608
32
371_C13H18O_15-17-27-28 (-150,) energy =    -581.4528295
C           0.5658637     0.6946567    -0.5891286
H           1.2389947     1.5603872    -0.5837889
H           0.6014755     0.2729612    -1.6031551
C          -0.8716530     1.1226569    -0.2488898
H          -0.8821057     1.6231351     0.7310071
H          -1.2209685     1.8643490    -0.9776523
C          -1.8228325    -0.0833681    -0.2113079
H          -1.9097860    -0.5054085    -1.2231805
H          -2.8305081     0.2361835     0.0827695
C          -1.3079559    -1.1693634     0.7462003
H          -1.9645074    -2.0475540     0.7179203
H          -1.3438504    -0.7890435     1.7778951
C           0.1317593    -1.5860611     0.4052182
H           0.1625954    -2.0597741    -0.5852944
H           0.5078969    -2.3241312     1.1233421
C           1.0681007    -0.3757868     0.3872594
H           1.1118256     0.0409165     1.3987592
O           2.3545714    -0.8882753     0.0023497
C           5.9916355     1.1017992    -0.4940966
H           6.9484748     1.5940253    -0.6426514
C           5.1164226     1.5542722     0.4890603
H           5.4099873     2.3944281     1.1148074
C           3.8692828     0.9567464     0.7382203
C           3.0606567     1.4689556     1.9117350
H           3.6442708     2.2114350     2.4648424
H           2.8085993     0.6660260     2.6140909
H           2.1229790     1.9537222     1.6147676
C           3.4965247    -0.1259537    -0.0901755
C           4.3928868    -0.6048825    -1.0587774
H           4.0778503    -1.4589373    -1.6504267
C           5.6276865    -0.0022968    -1.2653617
H           6.2974213    -0.3917193    -2.0275355
32
371_C13H18O_15-17-27-28 (-135,) energy =    -581.4547348
C           0.6258160     0.6108516    -0.6654039
H           1.3081012     1.4682281    -0.7126903
H           0.7019952     0.0902470    -1.6302248
C          -0.8201925     1.0820180    -0.4359821
H          -0.8671249     1.6808459     0.4858787
H          -1.1279977     1.7474534    -1.2519010
C          -1.7875969    -0.1057773    -0.3170388
H          -1.8351993    -0.6303569    -1.2825188
H          -2.8030857     0.2511727    -0.1038586
C          -1.3300415    -1.0902255     0.7706216
H          -1.9957651    -1.9613440     0.8035879
H          -1.4071835    -0.6040203     1.7544645
C           0.1181517    -1.5511051     0.5404910
H           0.1866966    -2.1260541    -0.3929538
H           0.4534050    -2.2130088     1.3476904
C           1.0684569    -0.3570452     0.4378436
H           1.0684856     0.1697256     1.3990493
O           2.3704295    -0.9160798     0.1789041
C           5.8845602     1.2076769    -0.5775998
H           6.8101472     1.7374550    -0.7844597
C           5.1013329     1.5699324     0.5161152
H           5.4349001     2.3748132     1.1678449
C           3.9026661     0.9145684     0.8370524
C           3.1733710     1.3015652     2.1038273
H           3.8261336     1.9051728     2.7423255
H           2.8705915     0.4190707     2.6782307
H           2.2705178     1.8957915     1.9125388
C           3.4803916    -0.1233200    -0.0209817
C           4.2843881    -0.5135607    -1.1004820
H           3.9379762    -1.3407972    -1.7124015
C           5.4774431     0.1439610    -1.3831430
H           6.0814391    -0.1719321    -2.2295952
32
371_C13H18O_15-17-27-28 (-120,) energy =    -581.4569345
C           0.5215862     0.3224684    -1.0915559
H           1.1958724     1.0867109    -1.4969384
H           0.5050552    -0.5062594    -1.8130123
C          -0.8973714     0.8871190    -0.9109056
H          -0.8585228     1.7732275    -0.2598945
H          -1.2881686     1.2306160    -1.8766909
C          -1.8391815    -0.1563346    -0.2904201
H          -1.9738420    -0.9872013    -0.9983717
H          -2.8330216     0.2783053    -0.1246341
C          -1.2724444    -0.7034290     1.0290782
H          -1.9264289    -1.4868850     1.4313298
H          -1.2586327     0.1027171     1.7776383
C           0.1513006    -1.2560931     0.8499403
H           0.1344393    -2.1318768     0.1867535
H           0.5637821    -1.5929394     1.8086665
C           1.0796063    -0.2106461     0.2336136
H           1.1939346     0.6278655     0.9322037
O           2.3571871    -0.8490643     0.0296336
C           5.8735894     1.3498691    -0.4322633
H           6.7995039     1.9048456    -0.5554578
C           5.1766620     1.4141701     0.7736948
H           5.5781954     2.0073382     1.5928531
C           3.9833522     0.7094119     0.9836341
C           3.3230406     0.7307871     2.3428283
H           4.0670175     0.9200067     3.1235862
H           2.8385292    -0.2264257     2.5602005
H           2.5593894     1.5150050     2.4308018
C           3.4798503    -0.0545170    -0.0891916
C           4.1971134    -0.1557655    -1.2863061
H           3.7949721    -0.7915152    -2.0692135
C           5.3869021     0.5466434    -1.4639534
H           5.9293139     0.4644804    -2.4020918
32
371_C13H18O_15-17-27-28 (-105,) energy =    -581.4580822
C           0.5538442     0.1968251    -1.1632922
H           1.2441983     0.9116017    -1.6265875
H           0.5456731    -0.7009720    -1.7971552
C          -0.8630328     0.7891129    -1.0775177
H          -0.8301540     1.7345916    -0.5159084
H          -1.2237334     1.0396157    -2.0827996
C          -1.8336807    -0.1787362    -0.3837440
H          -1.9590059    -1.0745909    -1.0093908
H          -2.8263639     0.2794560    -0.2899908
C          -1.3090725    -0.5968451     0.9987137
H          -1.9815271    -1.3321419     1.4575126
H          -1.3075899     0.2791341     1.6642689
C           0.1133134    -1.1746671     0.9147366
H           0.1051953    -2.1118620     0.3412718
H           0.4968147    -1.4169980     1.9129454
C           1.0699681    -0.2039930     0.2235844
H           1.1754943     0.7018631     0.8389084
O           2.3505108    -0.8662284     0.1403014
C           5.7899512     1.4084788    -0.4927545
H           6.6961616     1.9861858    -0.6531150
C           5.2086110     1.3620288     0.7747697
H           5.6751380     1.8973886     1.5991409
C           4.0439778     0.6256871     1.0264045
C           3.4618449     0.5467467     2.4173379
H           4.2244476     0.7724716     3.1695615
H           3.0621587    -0.4524996     2.6167459
H           2.6399733     1.2599731     2.5652607
C           3.4615649    -0.0670685    -0.0526918
C           4.0519804    -0.0443067    -1.3194327
H           3.5889299    -0.6206350    -2.1145398
C           5.2133280     0.6944258    -1.5432459
H           5.6647816     0.7077937    -2.5317078
32
371_C13H18O_15-17-27-28 (-90,) energy =    -581.4579023
C           0.5460930     0.0680503    -1.2368653
H           1.2290780     0.7269995    -1.7846791
H           0.5541542    -0.9051454    -1.7475516
C          -0.8777547     0.6514628    -1.2435511
H          -0.8583310     1.6643064    -0.8145390
H          -1.2286120     0.7608095    -2.2771892
C          -1.8487947    -0.2219331    -0.4353636
H          -1.9598790    -1.1958817    -0.9341485
H          -2.8459662     0.2356458    -0.4152496
C          -1.3352620    -0.4417951     0.9956672
H          -2.0067932    -1.1124455     1.5458364
H          -1.3457681     0.5174154     1.5343152
C           0.0914014    -1.0140665     1.0026073
H           0.0944282    -2.0203669     0.5613440
H           0.4677785    -1.1160700     2.0271192
C           1.0526698    -0.1409237     0.1951599
H           1.1522498     0.8405611     0.6850346
O           2.3366992    -0.8035531     0.2301596
C           5.7656909     1.4722215    -0.4553251
H           6.6676187     2.0547294    -0.6224533
C           5.2865141     1.2868503     0.8428604
H           5.8234330     1.7243567     1.6818052
C           4.1291543     0.5425112     1.0981625
C           3.6262811     0.3250557     2.5045572
H           4.3535214     0.6861467     3.2384020
H           3.4365411    -0.7365204     2.6953500
H           2.6814515     0.8526954     2.6878097
C           3.4538981    -0.0225152    -0.0001517
C           3.9353606     0.1461387    -1.3009580
H           3.4094318    -0.3343591    -2.1197810
C           5.0904818     0.8952787    -1.5302683
H           5.4609107     1.0208218    -2.5442109
32
371_C13H18O_15-17-27-28 (-75,) energy =    -581.4583823
C           0.1743925    -1.0519660    -1.2695381
H           0.5948967    -1.2128205    -2.2690640
H           0.2230361    -2.0161444    -0.7447217
C          -1.2839726    -0.5726587    -1.3558666
H          -1.3326934     0.3329247    -1.9784926
H          -1.8940596    -1.3298564    -1.8635312
C          -1.8620456    -0.2608291     0.0333699
H          -1.9374622    -1.1931692     0.6119820
H          -2.8818519     0.1333252    -0.0599483
C          -0.9738017     0.7347062     0.7954016
H          -1.3701351     0.9091023     1.8033186
H          -0.9944249     1.7072409     0.2817289
C           0.4784588     0.2350733     0.8847645
H           0.5153263    -0.6938206     1.4698606
H           1.1082289     0.9702753     1.4003482
C           1.0448101    -0.0510471    -0.5103873
H           1.0829030     0.8938487    -1.0759281
O           2.3746519    -0.6077951    -0.4653398
C           5.6114077     1.8756280     0.4035445
H           6.4686952     2.5044056     0.6279064
C           5.1787771     0.9291567     1.3328476
H           5.7098498     0.8211497     2.2761771
C           4.0777585     0.0993738     1.0840097
C           3.6443894    -0.9432710     2.0859987
H           4.4297625    -1.1160359     2.8286132
H           3.4143501    -1.8929208     1.5934604
H           2.7395105    -0.6379882     2.6258710
C           3.4081087     0.2523479    -0.1436930
C           3.8608066     1.1701797    -1.0968962
H           3.3513440     1.2239551    -2.0550467
C           4.9518505     1.9927981    -0.8202970
H           5.2936572     2.7075156    -1.5642354
32
371_C13H18O_15-17-27-28 (-60,) energy =    -581.4595392
C           0.1518479    -1.1253742    -1.1717665
H           0.6009331    -1.4052025    -2.1319278
H           0.1741035    -2.0214072    -0.5362854
C          -1.2979353    -0.6485563    -1.3585374
H          -1.3179695     0.1810283    -2.0807632
H          -1.9000538    -1.4540287    -1.7965343
C          -1.9151180    -0.1776529    -0.0321681
H          -2.0147913    -1.0379575     0.6458355
H          -2.9287625     0.2071044    -0.2010151
C          -1.0433251     0.8947372     0.6395808
H          -1.4679582     1.1819161     1.6094052
H          -1.0431975     1.8037924     0.0200657
C           0.4024886     0.4045303     0.8269357
H           0.4189198    -0.4496282     1.5179157
H           1.0249541     1.1916211     1.2697654
C           1.0068669    -0.0472102    -0.5073362
H           1.0711113     0.8215316    -1.1797855
O           2.3231908    -0.6066502    -0.3338964
C           5.5832265     1.8698760     0.4588619
H           6.4468318     2.4940881     0.6709370
C           5.2434759     0.8300518     1.3259433
H           5.8485535     0.6480744     2.2115075
C           4.1356966     0.0080128     1.0902534
C           3.7793701    -1.1236647     2.0224357
H           4.5097144    -1.2027575     2.8337546
H           3.7474486    -2.0823245     1.4927757
H           2.7887173    -0.9808948     2.4701187
C           3.3648085     0.2563010    -0.0604144
C           3.7132817     1.2784886    -0.9488689
H           3.1282822     1.4241194    -1.8523066
C           4.8153003     2.0917521    -0.6838778
H           5.0780536     2.8859053    -1.3777928
32
371_C13H18O_15-17-27-28 (-45,) energy =    -581.4602977
C           0.1520033    -1.2613081    -0.9770419
H           0.6067479    -1.7171037    -1.8643284
H           0.1742553    -2.0189596    -0.1818173
C          -1.2981014    -0.8346837    -1.2572769
H          -1.3177452    -0.1566964    -2.1233902
H          -1.8948601    -1.7112533    -1.5376131
C          -1.9230500    -0.1250308    -0.0457872
H          -2.0228687    -0.8426957     0.7816569
H          -2.9371859     0.2168596    -0.2879577
C          -1.0582099     1.0585198     0.4151393
H          -1.4874802     1.5208470     1.3124731
H          -1.0604007     1.8349383    -0.3642604
C           0.3894321     0.6216038     0.6956917
H           0.4096205    -0.0872230     1.5353258
H           1.0048633     1.4814140     0.9852020
C           1.0000288    -0.0716407    -0.5274029
H           1.0582042     0.6482130    -1.3575044
O           2.3122000    -0.5910564    -0.2483272
C           5.5721860     1.8849133     0.5422387
H           6.4378755     2.5051494     0.7570201
C           5.3392088     0.7248318     1.2841598
H           6.0297879     0.4452733     2.0768920
C           4.2323017    -0.0934816     1.0412890
C           3.9840032    -1.3496052     1.8385894
H           4.7527910    -1.4812815     2.6063792
H           3.9841844    -2.2383167     1.1966394
H           3.0055743    -1.3241071     2.3325958
C           3.3452301     0.2807398     0.0129320
C           3.5798617     1.4300611    -0.7486319
H           2.9055020     1.6942893    -1.5569709
C           4.6879564     2.2344525    -0.4764541
H           4.8596194     3.1279442    -1.0710649
32
371_C13H18O_15-17-27-28 (-30,) energy =    -581.4611758
C           0.1463403    -1.3087195    -0.8285690
H           0.6358670    -1.8672914    -1.6348650
H           0.1265564    -1.9675868     0.0502465
C          -1.2859167    -0.9131182    -1.2221241
H          -1.2614048    -0.3411730    -2.1615083
H          -1.8766793    -1.8147721    -1.4247776
C          -1.9577824    -0.0650403    -0.1309160
H          -2.0997480    -0.6807501     0.7692964
H          -2.9573827     0.2495436    -0.4561900
C          -1.1039358     1.1612038     0.2268882
H          -1.5679047     1.7262031     1.0446151
H          -1.0662195     1.8416320    -0.6368132
C           0.3266044     0.7565667     0.6208625
H           0.3050074     0.1490798     1.5363343
H           0.9331840     1.6427241     0.8391064
C           0.9858089    -0.0776799    -0.4837716
H           1.0919491     0.5342967    -1.3922016
O           2.2745082    -0.5723863    -0.0858848
C           5.5853373     1.8698460     0.5809272
H           6.4660664     2.4783156     0.7656440
C           5.4290002     0.6433419     1.2320642
H           6.1948840     0.2997675     1.9240941
C           4.3075171    -0.1621039     1.0241646
C           4.1399916    -1.4883027     1.7223089
H           4.9770779    -1.6794133     2.4009544
H           4.0842527    -2.3151139     1.0041869
H           3.2104430    -1.5197530     2.3029169
C           3.3189413     0.2933716     0.1272760
C           3.4713125     1.5133563    -0.5397550
H           2.7162714     1.8543968    -1.2399004
C           4.6016104     2.3003255    -0.3055617
H           4.7071242     3.2488576    -0.8257582
32
371_C13H18O_15-17-27-28 (-15,) energy =    -581.4619744
C           0.1496614    -1.3199234    -0.7167966
H           0.6891113    -1.9247779    -1.4549422
H           0.0690287    -1.9261662     0.1957815
C          -1.2517117    -0.9479972    -1.2273256
H          -1.1621661    -0.4313261    -2.1943928
H          -1.8308189    -1.8599987    -1.4168518
C          -1.9921461    -0.0384713    -0.2344808
H          -2.1961321    -0.6010478     0.6882857
H          -2.9666339     0.2562996    -0.6436555
C          -1.1598876     1.2066736     0.1082075
H          -1.6750315     1.8173002     0.8598233
H          -1.0630945     1.8366138    -0.7886293
C           0.2400903     0.8256951     0.6184020
H           0.1560802     0.2697215     1.5623832
H           0.8326637     1.7228373     0.8292859
C           0.9695800    -0.0702940    -0.3905207
H           1.1426000     0.4848599    -1.3244968
O           2.2250341    -0.5374155     0.1242688
C           5.6197894     1.8443847     0.5360970
H           6.5227364     2.4359255     0.6572551
C           5.5136697     0.5891383     1.1424358
H           6.3413850     0.2059246     1.7353792
C           4.3680182    -0.1963607     1.0120464
C           4.2539059    -1.5524453     1.6614825
H           5.1573954    -1.7878735     2.2324597
H           4.1024033    -2.3420238     0.9156606
H           3.3940301    -1.5994958     2.3403131
C           3.2976185     0.3081453     0.2419876
C           3.3944149     1.5607330    -0.3732940
H           2.5761169     1.9507209    -0.9679108
C           4.5555500     2.3241871    -0.2210824
H           4.6172481     3.2971054    -0.7017965
32
371_C13H18O_15-17-27-28 (0,) energy =    -581.4622174
C           0.1671371    -1.3080546    -0.6228384
H           0.7631880    -1.9300310    -1.3007797
H           0.0308681    -1.8840512     0.3026455
C          -1.2001355    -0.9740187    -1.2408844
H          -1.0501211    -0.4888264    -2.2167375
H          -1.7534751    -1.9002546    -1.4383009
C          -2.0185962    -0.0425464    -0.3334048
H          -2.2780891    -0.5761918     0.5925984
H          -2.9664316     0.2232225    -0.8180511
C          -1.2277864     1.2260132     0.0209427
H          -1.8007349     1.8541181     0.7140578
H          -1.0781567     1.8262820    -0.8889234
C           0.1388277     0.8835158     0.6379006
H          -0.0025256     0.3591363     1.5929512
H           0.7036936     1.7960511     0.8590172
C           0.9486883    -0.0365003    -0.2849921
H           1.1872978     0.4874161    -1.2220179
O           2.1676948    -0.4629664     0.3401452
C           5.6585651     1.8090365     0.4610492
H           6.5863072     2.3720061     0.5082317
C           5.5772728     0.5360459     1.0339704
H           6.4490419     0.1103363     1.5262444
C           4.4030578    -0.2154607     0.9932544
C           4.3145270    -1.5897329     1.6073572
H           5.2710465    -1.8789699     2.0536024
H           4.0394211    -2.3441640     0.8606395
H           3.5440884    -1.6311924     2.3867813
C           3.2757032     0.3421003     0.3503775
C           3.3438038     1.6167235    -0.2221532
H           2.4801912     2.0539542    -0.7096024
C           4.5374071     2.3430025    -0.1657584
H           4.5771060     3.3321153    -0.6146965
32
371_C13H18O_15-17-27-28 (15,) energy =    -581.4619740
C           0.6440735    -0.4669955    -0.9863469
H           1.4969691    -0.3593906    -1.6656281
H           0.6641749    -1.4990994    -0.6099991
C          -0.6777661    -0.2053413    -1.7278210
H          -0.6533928     0.8000360    -2.1740979
H          -0.7812498    -0.9103903    -2.5616930
C          -1.8841347    -0.3107227    -0.7822124
H          -1.9823980    -1.3503749    -0.4371967
H          -2.8101686    -0.0699355    -1.3192703
C          -1.7205254     0.6123370     0.4354353
H          -2.5590953     0.4822454     1.1303440
H          -1.7537698     1.6602890     0.1024760
C          -0.3944482     0.3522623     1.1679753
H          -0.3922606    -0.6605734     1.5934696
H          -0.2632669     1.0495754     2.0035812
C           0.7965164     0.4737843     0.2155290
H           0.8575075     1.5156870    -0.1326061
O           1.9635181     0.1622332     0.9902665
C           5.8648306     0.9959899    -0.2141698
H           6.8941645     1.1979369    -0.4962614
C           5.5834180     0.1394336     0.8543135
H           6.4004758    -0.3229282     1.4040360
C           4.2742293    -0.1466066     1.2424944
C           3.9687841    -1.0662758     2.3977775
H           4.8908379    -1.4634792     2.8333984
H           3.3438507    -1.9102922     2.0824294
H           3.4113603    -0.5467828     3.1865226
C           3.2187258     0.4559011     0.5239669
C           3.4886760     1.3184476    -0.5437801
H           2.6813889     1.7857236    -1.0962459
C           4.8118584     1.5827514    -0.9092097
H           5.0082390     2.2524418    -1.7425315
32
371_C13H18O_15-17-27-28 (30,) energy =    -581.4611758
C           0.7081525    -0.4607872    -0.8954721
H           1.5729052    -0.3582863    -1.5607097
H           0.7648064    -1.4626920    -0.4476187
C          -0.6040904    -0.3129014    -1.6838501
H          -0.6116672     0.6578237    -2.2015573
H          -0.6550599    -1.0800825    -2.4661571
C          -1.8290430    -0.4045878    -0.7608999
H          -1.8897734    -1.4196903    -0.3419557
H          -2.7505325    -0.2470750    -1.3353684
C          -1.7386189     0.6115548     0.3882966
H          -2.5889154     0.4944590     1.0711825
H          -1.8089038     1.6297340    -0.0222351
C          -0.4223882     0.4662719     1.1687940
H          -0.3882123    -0.5106330     1.6700956
H          -0.3429922     1.2293816     1.9518089
C           0.7871492     0.5682311     0.2383778
H           0.8115974     1.5826552    -0.1875002
O           1.9445600     0.3676159     1.0653897
C           5.8568439     0.9432069    -0.2512218
H           6.8880632     1.0809778    -0.5637045
C           5.5458841     0.0392178     0.7680141
H           6.3422345    -0.5250986     1.2485353
C           4.2315693    -0.1684988     1.1912412
C           3.8951469    -1.1399855     2.2945572
H           4.7960281    -1.6452135     2.6564340
H           3.1850725    -1.9024250     1.9530370
H           3.4206854    -0.6336364     3.1436273
C           3.2060325     0.5658066     0.5601939
C           3.5072530     1.4827940    -0.4521851
H           2.7180171     2.0566990    -0.9258303
C           4.8316090     1.6635724    -0.8585612
H           5.0534356     2.3752284    -1.6496300
32
371_C13H18O_15-17-27-28 (45,) energy =    -581.4602977
C           0.7485917    -0.5459357    -0.7580843
H           1.6333020    -0.5149064    -1.4047452
H           0.7951908    -1.4868682    -0.1921309
C          -0.5399814    -0.5035353    -1.5965674
H          -0.5349918     0.3974624    -2.2278143
H          -0.5661766    -1.3599902    -2.2814225
C          -1.7908665    -0.4904915    -0.7042052
H          -1.8606621    -1.4476011    -0.1668597
H          -2.6958441    -0.4099627    -1.3194596
C          -1.7374469     0.6583536     0.3151952
H          -2.6071405     0.6192126     0.9824170
H          -1.7992491     1.6184515    -0.2182818
C          -0.4438193     0.6188781     1.1448418
H          -0.4208311    -0.2890806     1.7628999
H          -0.3896167     1.4725871     1.8304528
C           0.7902316     0.6142049     0.2427732
H           0.8215176     1.5652611    -0.3096361
O           1.9305098     0.5271442     1.1155016
C           5.8385257     0.9803438    -0.2646990
H           6.8672235     1.0885227    -0.5968441
C           5.4997617    -0.0135148     0.6561692
H           6.2715329    -0.6773732     1.0397551
C           4.1859167    -0.1872744     1.1005629
C           3.8211421    -1.2567819     2.0997022
H           4.6995242    -1.8499258     2.3726493
H           3.0586019    -1.9355917     1.6999955
H           3.4014586    -0.8235712     3.0151815
C           3.1960607     0.6781477     0.5949095
C           3.5280786     1.6889462    -0.3128473
H           2.7628076     2.3681258    -0.6748766
C           4.8470092     1.8321565    -0.7474888
H           5.0945302     2.6180786    -1.4563030
32
371_C13H18O_15-17-27-28 (60,) energy =    -581.4595392
C           0.7352733    -0.7124159    -0.5664280
H           1.6473276    -0.8410009    -1.1619912
H           0.6980867    -1.5416109     0.1535458
C          -0.5118174    -0.7478564    -1.4660384
H          -0.4248378     0.0277148    -2.2413460
H          -0.5631297    -1.7080407    -1.9940139
C          -1.7947086    -0.5123630    -0.6536141
H          -1.9442787    -1.3555808     0.0365739
H          -2.6676191    -0.4930037    -1.3182005
C          -1.7126733     0.7928339     0.1536363
H          -2.6098150     0.9175778     0.7723029
H          -1.6939102     1.6461122    -0.5404722
C          -0.4583896     0.8322648     1.0420736
H          -0.5168279     0.0487661     1.8101377
H          -0.3799000     1.7898991     1.5699611
C           0.8086562     0.6014395     0.2197181
H           0.9292422     1.4333893    -0.4904563
O           1.9133381     0.6080847     1.1445886
C           5.8220346     1.0591165    -0.2367608
H           6.8491658     1.1701803    -0.5730594
C           5.4519354    -0.0530264     0.5213028
H           6.1969588    -0.8043352     0.7741523
C           4.1382107    -0.2345199     0.9681330
C           3.7447229    -1.4310187     1.7989069
H           4.6139961    -2.0634041     2.0046949
H           2.9911265    -2.0445503     1.2910993
H           3.3061256    -1.1260962     2.7555887
C           3.1875842     0.7474203     0.6333896
C           3.5550795     1.8782971    -0.1026233
H           2.8136524     2.6436737    -0.3126615
C           4.8689139     2.0287839    -0.5467581
H           5.1460836     2.9091449    -1.1206722
32
371_C13H18O_15-17-27-28 (75,) energy =    -581.4583822
C           0.7736583    -0.7853932    -0.3904367
H           1.6974911    -0.9923945    -0.9441903
H           0.7061409    -1.5241361     0.4196493
C          -0.4505156    -0.9139172    -1.3132327
H          -0.3367742    -0.2308523    -2.1679841
H          -0.4968160    -1.9270596    -1.7313093
C          -1.7513253    -0.5805110    -0.5665987
H          -1.9248758    -1.3380950     0.2116591
H          -2.6071795    -0.6330034    -1.2513082
C          -1.6780975     0.8085199     0.0865591
H          -2.5877287     1.0076399     0.6663882
H          -1.6383339     1.5757820    -0.7007426
C          -0.4433769     0.9456782     0.9924686
H          -0.5259563     0.2601867     1.8472897
H          -0.3687023     1.9589954     1.4040091
C           0.8417765     0.6118980     0.2356519
H           0.9883333     1.3514500    -0.5678976
O           1.9251395     0.7445426     1.1786458
C           5.8348358     1.1191671    -0.2259723
H           6.8607353     1.2180438    -0.5700582
C           5.4216972    -0.0536784     0.4067371
H           6.1345289    -0.8612822     0.5591243
C           4.1084787    -0.2227032     0.8645551
C           3.6873911    -1.4845979     1.5781390
H           4.5628370    -2.0584229     1.8982254
H           3.0829484    -2.1346351     0.9334907
H           3.0784892    -1.2563104     2.4581770
C           3.2040522     0.8355247     0.6614776
C           3.6213035     2.0297452     0.0650844
H           2.9093081     2.8452011    -0.0275946
C           4.9307722     2.1686456    -0.3927138
H           5.2453653     3.0978695    -0.8603375
32
371_C13H18O_15-17-27-28 (90,) energy =    -581.4579021
C          -0.1958651     1.1565850    -0.3759874
H           0.0550354     2.1921464    -0.1183861
H          -0.3535881     1.1288176    -1.4630424
C          -1.4716127     0.7031766     0.3519084
H          -1.3392486     0.8363074     1.4359409
H          -2.3124568     1.3454087     0.0622101
C          -1.7948521    -0.7701162     0.0609147
H          -2.0516360    -0.8816315    -1.0027281
H          -2.6776113    -1.0854379     0.6313836
C          -0.5973654    -1.6743197     0.3886074
H          -0.8210764    -2.7167575     0.1302250
H          -0.4156908    -1.6564892     1.4734697
C           0.6736867    -1.2176171    -0.3486579
H           0.5342808    -1.3211933    -1.4339379
H           1.5230723    -1.8511235    -0.0693685
C           0.9921914     0.2516315    -0.0472832
H           1.2410605     0.3509108     1.0210705
O           2.1078480     0.7402381    -0.8255554
C           5.9728346    -0.1667034     0.4572226
H           6.9850262    -0.3870769     0.7852583
C           5.3466890     1.0100117     0.8725392
H           5.8791413     1.7030828     1.5203628
C           4.0446708     1.3291165     0.4705004
C           3.3787302     2.6126412     0.9032171
H           4.0921485     3.2700224     1.4098403
H           2.5478209     2.4292715     1.5965541
H           2.9603070     3.1482330     0.0445237
C           3.3757913     0.4236700    -0.3745685
C           4.0011928    -0.7488381    -0.8064842
H           3.4687585    -1.4054320    -1.4871762
C           5.2995000    -1.0464608    -0.3895813
H           5.7811020    -1.9589688    -0.7308494
32
371_C13H18O_15-17-27-28 (105,) energy =    -581.4580821
C          -0.1954183     1.1506780    -0.5487356
H           0.0337927     2.2166300    -0.4328577
H          -0.3355426     0.9707675    -1.6235649
C          -1.4747765     0.7779448     0.2183528
H          -1.3622322     1.0635806     1.2747866
H          -2.3217812     1.3571074    -0.1695991
C          -1.7693642    -0.7276950     0.1318351
H          -2.0104969    -0.9900826    -0.9086954
H          -2.6546183    -0.9759384     0.7308762
C          -0.5624343    -1.5580125     0.5945507
H          -0.7670965    -2.6296603     0.4799526
H          -0.3953489    -1.3878860     1.6685871
C           0.7088197    -1.1824971    -0.1855805
H           0.5823029    -1.4321815    -1.2483794
H           1.5696058    -1.7552468     0.1793045
C           0.9981707     0.3193880    -0.0803434
H           1.2229536     0.5653385     0.9681403
O           2.1222801     0.7003631    -0.9028497
C           5.9919046    -0.1472257     0.4057413
H           7.0065108    -0.3566812     0.7334323
C           5.2937409     0.9324100     0.9476678
H           5.7763549     1.5660196     1.6889293
C           3.9866390     1.2409866     0.5499795
C           3.2693106     2.4453078     1.1111028
H           3.9856217     3.1766068     1.4989915
H           2.5967256     2.1807867     1.9379683
H           2.6601604     2.9299824     0.3416694
C           3.3840670     0.4133284    -0.4172083
C           4.0862656    -0.6553409    -0.9816602
H           3.5960268    -1.2464879    -1.7491087
C           5.3879642    -0.9399028    -0.5703836
H           5.9259940    -1.7737212    -1.0134599
32
371_C13H18O_15-17-27-28 (120,) energy =    -581.4569341
C          -0.1721355     1.1158474    -0.6668367
H           0.0728813     2.1847723    -0.6547267
H          -0.3026419     0.8323163    -1.7202588
C          -1.4660621     0.8407041     0.1170877
H          -1.3603005     1.2275757     1.1415660
H          -2.2988102     1.3921037    -0.3365526
C          -1.7856798    -0.6612780     0.1760489
H          -2.0179931    -1.0217337    -0.8367542
H          -2.6828994    -0.8341731     0.7836824
C          -0.5996656    -1.4614984     0.7362563
H          -0.8215907    -2.5357718     0.7239434
H          -0.4444846    -1.1895554     1.7909927
C           0.6873221    -1.1840092    -0.0583583
H           0.5719030    -1.5380774    -1.0922463
H           1.5363386    -1.7277979     0.3735353
C           1.0007490     0.3166108    -0.1009464
H           1.2149179     0.6621448     0.9183782
O           2.1374746     0.5770175    -0.9500231
C           6.0507841    -0.0847591     0.3388698
H           7.0766492    -0.2516243     0.6555609
C           5.2712668     0.8790643     0.9771013
H           5.7051823     1.4729682     1.7789953
C           3.9465923     1.1371042     0.5981985
C           3.1793910     2.2629807     1.2523132
H           3.8694411     3.0295835     1.6197410
H           2.5854597     1.9271769     2.1128183
H           2.4928897     2.7359107     0.5428810
C           3.4027435     0.3577892    -0.4434217
C           4.1939062    -0.5809773    -1.1148944
H           3.7483226    -1.1265310    -1.9411918
C           5.5115035    -0.8088943    -0.7248023
H           6.1118074    -1.5467294    -1.2503936
32
371_C13H18O_15-17-27-28 (135,) energy =    -581.4544661
C          -0.0923985     1.0727199    -0.6908507
H           0.2338980     2.1196365    -0.7162299
H          -0.2367692     0.7613110    -1.7344981
C          -1.4096952     0.9277180     0.0892295
H          -1.2820621     1.3425328     1.1002430
H          -2.1936213     1.5249310    -0.3925298
C          -1.8455990    -0.5418127     0.1986973
H          -2.0951846    -0.9205214    -0.8032633
H          -2.7595209    -0.6219670     0.8006968
C          -0.7311478    -1.4100438     0.8026813
H          -1.0362399    -2.4634931     0.8274696
H          -0.5652427    -1.1111784     1.8485276
C           0.5804519    -1.2631475     0.0136143
H           0.4491143    -1.6496814    -1.0063661
H           1.3831962    -1.8500196     0.4770736
C           1.0112318     0.2059599    -0.0850283
H           1.2490789     0.5687534     0.9193175
O           2.1660767     0.3140874    -0.9403676
C           6.1474439     0.0925720     0.2923297
H           7.1906620     0.0310711     0.5891900
C           5.2767714     0.9442731     0.9685071
H           5.6576564     1.5628677     1.7787038
C           3.9231836     1.0716052     0.6212244
C           3.0881235     2.1234948     1.3181693
H           3.7372335     2.9119216     1.7129238
H           2.5155811     1.7276452     2.1673587
H           2.3772696     2.5926752     0.6300959
C           3.4429387     0.2574295    -0.4276583
C           4.3285082    -0.5586332    -1.1449758
H           3.9267102    -1.1277099    -1.9777316
C           5.6699536    -0.6503290    -0.7878835
H           6.3360750    -1.2987044    -1.3509051
32
371_C13H18O_15-17-27-28 (150,) energy =    -581.4517636
C           0.0455936     1.0042571    -0.6538936
H           0.4871980     2.0080382    -0.6726337
H          -0.1116265     0.7114442    -1.7010514
C          -1.2964233     1.0125828     0.0973474
H          -1.1427215     1.4035509     1.1142640
H          -1.9932246     1.7014110    -0.3959060
C          -1.9047201    -0.3955915     0.1845358
H          -2.1762639    -0.7353006    -0.8256220
H          -2.8338799    -0.3718144     0.7677182
C          -0.9126173    -1.3924247     0.8027588
H          -1.3389722    -2.4031552     0.8109384
H          -0.7362694    -1.1225341     1.8547799
C           0.4248184    -1.3957359     0.0443452
H           0.2735613    -1.7579768    -0.9816574
H           1.1430425    -2.0749363     0.5195589
C           1.0303225     0.0120391    -0.0308925
H           1.2929393     0.3304699     0.9807127
O           2.2075597    -0.0524745    -0.8563186
C           6.2321876     0.3467709     0.1756877
H           7.2876597     0.4343785     0.4169384
C           5.2899553     1.0981968     0.8711156
H           5.6259019     1.7868287     1.6437444
C           3.9118219     1.0392994     0.6020138
C           3.0073200     1.9967547     1.3510790
H           3.6002211     2.8302018     1.7413787
H           2.5054801     1.5353020     2.2115614
H           2.2329223     2.4235669     0.7063488
C           3.4892715     0.1344043    -0.3979556
C           4.4430784    -0.5905750    -1.1313433
H           4.0760579    -1.2431791    -1.9174756
C           5.8000139    -0.4944990    -0.8504607
H           6.5134081    -1.0752741    -1.4291851
32
371_C13H18O_15-17-27-28 (165,) energy =    -581.4500592
C           0.1702326     0.9250037    -0.6506921
H           0.6937245     1.8883382    -0.6741093
H           0.0432991     0.6128249    -1.6963122
C          -1.2033874     1.0668513     0.0263124
H          -1.0705060     1.4681431     1.0421477
H          -1.8117563     1.7997030    -0.5178725
C          -1.9331758    -0.2826229     0.1066348
H          -2.1791772    -0.6208366    -0.9105434
H          -2.8863171    -0.1678947     0.6379562
C          -1.0636143    -1.3454582     0.7954538
H          -1.5735577    -2.3166790     0.7954351
H          -0.9231458    -1.0698419     1.8513383
C           0.3089326    -1.4781366     0.1152930
H           0.1856205    -1.8508722    -0.9106347
H           0.9397754    -2.2028213     0.6436703
C           1.0345659    -0.1288366     0.0501309
H           1.2656481     0.1885809     1.0694375
O           2.2434098    -0.3396885    -0.6960420
C           6.2502519     0.5825967     0.0210301
H           7.3029519     0.7988901     0.1780847
C           5.2808850     1.2402109     0.7699103
H           5.5923345     1.9785215     1.5058877
C           3.8999738     1.0165398     0.6187612
C           2.9712294     1.8552954     1.4759829
H           3.5299808     2.6947661     1.9017003
H           2.5474513     1.2980384     2.3211540
H           2.1380271     2.2806143     0.9088367
C           3.5093883     0.0525378    -0.3393600
C           4.4891583    -0.5971437    -1.1120975
H           4.1409094    -1.3159276    -1.8472693
C           5.8423757    -0.3431692    -0.9404567
H           6.5714456    -0.8669973    -1.5530819
32
371_C13H18O_15-17-27-28 (180,) energy =    -581.4498267
C           0.3066573     0.8383988    -0.6342571
H           0.8996980     1.7605685    -0.6543867
H           0.2233045     0.4970600    -1.6751106
C          -1.0928735     1.1012134    -0.0536982
H          -0.9963537     1.5232002     0.9579199
H          -1.6097096     1.8584468    -0.6559734
C          -1.9228140    -0.1899750     0.0131391
H          -2.1271969    -0.5404260    -1.0090675
H          -2.8970880     0.0079767     0.4774269
C          -1.1793416    -1.2908492     0.7852350
H          -1.7571843    -2.2231419     0.7743176
H          -1.0895684    -0.9949734     1.8411099
C           0.2219603    -1.5415344     0.2044602
H           0.1408653    -1.9353106    -0.8177792
H           0.7619882    -2.2924393     0.7930504
C           1.0439319    -0.2496284     0.1567688
H           1.2220462     0.0841503     1.1818574
O           2.2814848    -0.5866056    -0.4849016
C           6.2069747     0.7955475    -0.1621781
H           7.2397508     1.1274821    -0.1091776
C           5.2402206     1.3761010     0.6506239
H           5.5367075     2.1646007     1.3389289
C           3.8840088     0.9990389     0.6398065
C           2.9674125     1.7169397     1.6132276
H           3.5102664     2.5465524     2.0767937
H           2.6277205     1.0674469     2.4293624
H           2.0787812     2.1440880     1.1384073
C           3.5138529    -0.0230635    -0.2658717
C           4.4938034    -0.6150804    -1.0842955
H           4.1648934    -1.3995527    -1.7587875
C           5.8220527    -0.2179300    -1.0407407
H           6.5494897    -0.6974174    -1.6904371
