17
367_C8H6F2O_0-4-11-9 (-165,) energy =    -583.3530560
C           2.1846600    -2.6413547    -0.9613337
H           2.9381430    -3.3187495    -0.5476917
H           2.3949592    -2.5447604    -2.0315703
H           1.1853854    -3.0594587    -0.8263766
C           2.2080313    -1.2796098    -0.2877781
C           5.9519811     0.8706959     0.2602179
H           6.8788123     1.4194537     0.3967766
C           4.8151100     1.2399668     0.9755605
H           4.8201575     2.0646083     1.6795183
C           3.6335338     0.5325222     0.7851566
F           2.5772946     0.9162574     1.5090905
C           3.5232637    -0.5635427    -0.0972799
C           4.7078861    -0.8865084    -0.7821215
F           4.7065804    -1.9141358    -1.6586465
C           5.9052331    -0.2010243    -0.6289682
H           6.7689786    -0.5138022    -1.2048446
O           1.1694887    -0.7693097     0.0933783
17
367_C8H6F2O_0-4-11-9 (-150,) energy =    -583.3532310
C           2.2082721    -2.6975792    -0.7939440
H           2.9785668    -3.2855138    -0.2853664
H           2.4061611    -2.7656232    -1.8690798
H           1.2176976    -3.1091306    -0.5896991
C           2.2131135    -1.2438736    -0.3537562
C           5.9796796     0.8093771     0.3172269
H           6.9153573     1.3338651     0.4852616
C           4.8497191     1.1546512     1.0567929
H           4.8716235     1.9334581     1.8108840
C           3.6569190     0.4806972     0.8215789
F           2.5978130     0.8221198     1.5654907
C           3.5351758    -0.5542982    -0.1243833
C           4.7095069    -0.8634307    -0.8261074
F           4.6752693    -1.8416245    -1.7576083
C           5.9174866    -0.2064202    -0.6357462
H           6.7771244    -0.4952104    -1.2300127
O           1.1703113    -0.6430141    -0.1713575
17
367_C8H6F2O_0-4-11-9 (-135,) energy =    -583.3527483
C           2.1917898    -2.7678911    -0.7751474
H           2.7539553    -3.2872249     0.0101085
H           2.6769154    -3.0037461    -1.7271529
H           1.1583737    -3.1195509    -0.7911762
C           2.1947748    -1.2717418    -0.5308991
C           5.9605429     0.7397394     0.2426116
H           6.8961927     1.2548508     0.4374926
C           4.8478632     0.9993305     1.0420884
H           4.8848975     1.7004828     1.8683561
C           3.6560761     0.3385060     0.7690458
F           2.6024413     0.5832553     1.5620729
C           3.5221720    -0.5960062    -0.2693215
C           4.6751839    -0.8265840    -1.0282924
F           4.6153057    -1.7092989    -2.0510601
C           5.8823699    -0.1777386    -0.8048925
H           6.7290397    -0.3950166    -1.4464188
O           1.1670377    -0.6232550    -0.4972559
17
367_C8H6F2O_0-4-11-9 (-120,) energy =    -583.3521925
C           2.1745816    -2.6738261    -0.6849651
H           2.3956131    -3.0520941     0.3216758
H           2.9518076    -3.0562560    -1.3537041
H           1.1919095    -3.0311450    -0.9999180
C           2.1807418    -1.1603889    -0.6593145
C           5.9304704     0.8150060     0.2485153
H           6.8649105     1.3185532     0.4764783
C           4.8242241     1.0035000     1.0777217
H           4.8658523     1.6362391     1.9573151
C           3.6351679     0.3577035     0.7609354
F           2.5761932     0.5239353     1.5722376
C           3.5006966    -0.4840007    -0.3480550
C           4.6424715    -0.6497042    -1.1343945
F           4.5616692    -1.4557359    -2.2179473
C           5.8492233    -0.0152111    -0.8699961
H           6.6925963    -0.1748527    -1.5325027
O           1.1771278    -0.4959246    -0.8167811
17
367_C8H6F2O_0-4-11-9 (-105,) energy =    -583.3510932
C           2.1455638    -2.6818109    -0.5369992
H           2.3100479    -2.9108422     0.5235101
H           2.9500359    -3.1675349    -1.1018541
H           1.1752749    -3.0696951    -0.8543272
C           2.1974594    -1.1855389    -0.7457930
C           5.9227715     0.7746413     0.2779339
H           6.8537212     1.2730402     0.5300846
C           4.8213424     0.8989378     1.1262297
H           4.8639702     1.4772992     2.0424987
C           3.6385288     0.2578507     0.7778291
F           2.5753650     0.3551730     1.6001808
C           3.5057244    -0.5043384    -0.3825592
C           4.6397855    -0.6147877    -1.1845065
F           4.5497423    -1.3729942    -2.3009518
C           5.8430440     0.0127910    -0.8889928
H           6.6856912    -0.1010131    -1.5618406
O           1.2560574    -0.5346117    -1.1456621
17
367_C8H6F2O_0-4-11-9 (-90,) energy =    -583.3505178
C           2.0528020    -2.7394333    -0.4263863
H           2.1113342    -2.8088268     0.6670743
H           2.8726565    -3.3446508    -0.8330342
H           1.0928730    -3.1262151    -0.7751314
C           2.2204912    -1.3002922    -0.8538104
C           5.8879470     0.7098345     0.2700468
H           6.8014753     1.2282119     0.5445847
C           4.7985183     0.7239008     1.1429165
H           4.8315178     1.2395060     2.0962625
C           3.6412784     0.0543721     0.7652508
F           2.5805070     0.0425733     1.6015211
C           3.5213697    -0.6277184    -0.4429396
C           4.6367405    -0.6183871    -1.2770476
F           4.5554290    -1.2900497    -2.4456616
C           5.8188873     0.0340045    -0.9494806
H           6.6539735     0.0068810    -1.6406779
O           1.3891379    -0.6882032    -1.4882588
17
367_C8H6F2O_0-4-11-9 (-75,) energy =    -583.3512665
C           2.0264820    -2.7589953    -0.2889336
H           1.9968739    -2.6726965     0.8036193
H           2.8279875    -3.4664635    -0.5364944
H           1.0715352    -3.1338466    -0.6633277
C           2.3312869    -1.4129535    -0.9049975
C           5.9222329     0.6800279     0.3093845
H           6.8132456     1.2259249     0.6039411
C           4.8526474     0.5734428     1.1997928
H           4.8749976     1.0262103     2.1847965
C           3.7273770    -0.1325751     0.7945085
F           2.6834693    -0.2495796     1.6467650
C           3.6156574    -0.7381669    -0.4558180
C           4.7065488    -0.5942845    -1.3135867
F           4.6408086    -1.1717792    -2.5288039
C           5.8607447     0.0913499    -0.9546807
H           6.6809376     0.1589940    -1.6607393
O           1.6272109    -0.8862312    -1.7398921
17
367_C8H6F2O_0-4-11-9 (-60,) energy =    -583.3523412
C           1.9633294    -2.7943736    -0.1858275
H           1.8508338    -2.5725940     0.8795342
H           2.7318021    -3.5732027    -0.2772181
H           1.0223316    -3.1626911    -0.5998414
C           2.4086429    -1.5667631    -0.9509521
C           5.8857360     0.6404463     0.3982962
H           6.7509931     1.2100754     0.7232322
C           4.8174287     0.4469459     1.2744115
H           4.8129851     0.8574179     2.2779640
C           3.7256669    -0.2890965     0.8323435
F           2.6858001    -0.4669860     1.6794697
C           3.6406174    -0.8428125    -0.4472009
C           4.7319840    -0.6064398    -1.2911314
F           4.7108463    -1.1274517    -2.5295975
C           5.8538710     0.1092525    -0.8915177
H           6.6735842     0.2424641    -1.5887176
O           1.8545588    -1.1869514    -1.9623646
17
367_C8H6F2O_0-4-11-9 (-45,) energy =    -583.3528211
C           1.9400311    -2.8251708    -0.1522924
H           1.4620743    -2.4254645     0.7470414
H           2.7321293    -3.5067833     0.1796109
H           1.2042125    -3.3676342    -0.7491283
C           2.5167414    -1.7034920    -0.9937803
C           5.9233147     0.5669887     0.4438777
H           6.7717482     1.1492226     0.7902004
C           4.8922268     0.2539616     1.3289774
H           4.8991029     0.5810853     2.3626822
C           3.8218119    -0.4964221     0.8602199
F           2.8273642    -0.7828543     1.7305512
C           3.7137808    -0.9497216    -0.4599066
C           4.7741556    -0.5961235    -1.3097866
F           4.7555609    -1.0159528    -2.5829928
C           5.8741334     0.1374495    -0.8819430
H           6.6655690     0.3604999    -1.5887458
O           2.0677510    -1.4284386    -2.0898339
17
367_C8H6F2O_0-4-11-9 (-30,) energy =    -583.3532444
C           1.8405792    -2.6526024    -0.0741164
H           1.1593818    -2.1045888     0.5858996
H           2.5460108    -3.1917438     0.5654634
H           1.2602211    -3.3534609    -0.6776826
C           2.5401258    -1.6892016    -1.0172313
C           5.9177399     0.6610565     0.3714823
H           6.7598908     1.2579238     0.7081029
C           4.9359870     0.2746118     1.2825678
H           4.9751512     0.5542531     2.3293909
C           3.8728157    -0.4919411     0.8250069
F           2.9332253    -0.8482837     1.7281225
C           3.7174186    -0.8935281    -0.5100844
C           4.7358254    -0.4691549    -1.3847495
F           4.6923728    -0.8293752    -2.6729357
C           5.8259814     0.2856962    -0.9678291
H           6.5791843     0.5644288    -1.6962974
O           2.1696098    -1.5665292    -2.1703264
17
367_C8H6F2O_0-4-11-9 (-15,) energy =    -583.3530361
C           1.8668484    -2.6113594    -0.0988077
H           1.2259932    -1.9561065     0.5003561
H           2.4861946    -3.1797564     0.6018432
H           1.2428741    -3.2873001    -0.6864174
C           2.7026992    -1.7964915    -1.0716623
C           5.9794972     0.6850497     0.3591431
H           6.7983571     1.3078324     0.7061060
C           5.0387682     0.2074320     1.2692837
H           5.0873399     0.4374450     2.3277037
C           4.0036790    -0.5892437     0.7994842
F           3.1126369    -1.0261969     1.7157049
C           3.8316024    -0.9406067    -0.5510440
C           4.8166572    -0.4278060    -1.4224830
F           4.7734382    -0.7198828    -2.7260907
C           5.8743876     0.3655592    -0.9925990
H           6.5937332     0.7150327    -1.7247596
O           2.4586898    -1.8337524    -2.2648086
17
367_C8H6F2O_0-4-11-9 (0,) energy =    -583.3527914
C           1.7625344    -2.5284133    -0.0779474
H           1.2087739    -1.7595820     0.4701352
H           2.2664134    -3.1498425     0.6691770
H           1.0709250    -3.1385530    -0.6614903
C           2.7555409    -1.9122671    -1.0497033
C           5.9293651     0.7177998     0.3641211
H           6.7232910     1.3747549     0.7060040
C           5.0375015     0.1694417     1.2830183
H           5.1021906     0.3734665     2.3458753
C           4.0319858    -0.6671644     0.8185234
F           3.1950867    -1.1720107     1.7505121
C           3.8474459    -1.0046967    -0.5353765
C           4.7840188    -0.4175106    -1.4159702
F           4.7173377    -0.6601287    -2.7279582
C           5.8051948     0.4255249    -0.9916656
H           6.4817161     0.8347838    -1.7335749
O           2.6644948    -2.1548115    -2.2405913
17
367_C8H6F2O_0-4-11-9 (15,) energy =    -583.3530361
C           1.7151891    -2.4132562    -0.1274070
H           1.2462284    -1.5564374     0.3660721
H           2.0811509    -3.0763806     0.6634024
H           0.9826075    -2.9470118    -0.7356435
C           2.8537257    -1.9948463    -1.0427028
C           5.9132181     0.7713965     0.3465984
H           6.6817566     1.4601144     0.6839262
C           5.0758232     0.1585223     1.2764385
H           5.1617618     0.3396888     2.3419479
C           4.0996703    -0.7153851     0.8179269
F           3.3137268    -1.2899393     1.7541567
C           3.9048627    -1.0370984    -0.5368998
C           4.7825145    -0.3837013    -1.4288093
F           4.6728808    -0.5889152    -2.7450294
C           5.7672251     0.5053322    -1.0128921
H           6.3975809     0.9712851    -1.7620176
O           2.9164796    -2.4338988    -2.1775255
17
367_C8H6F2O_0-4-11-9 (30,) energy =    -583.3532454
C           1.5282098    -2.1949669    -0.2433736
H           1.1097483    -1.2706436     0.1665987
H           1.7319685    -2.8605419     0.6023640
H           0.8086771    -2.6774421    -0.9080509
C           2.8025874    -1.9477223    -1.0318256
C           5.7513814     0.8954223     0.4110127
H           6.4986654     1.5996106     0.7638183
C           4.9434805     0.2264687     1.3291712
H           5.0351868     0.3777137     2.3988758
C           3.9933776    -0.6649997     0.8495863
F           3.2268393    -1.3031211     1.7610252
C           3.8038678    -0.9460381    -0.5116642
C           4.6515384    -0.2454942    -1.3909409
F           4.5251606    -0.4223329    -2.7114869
C           5.6054532     0.6672887    -0.9563461
H           6.2136140     1.1799002    -1.6932590
O           3.0123599    -2.5358376    -2.0768370
17
367_C8H6F2O_0-4-11-9 (45,) energy =    -583.3528211
C           1.5272033    -2.1683556    -0.3078394
H           1.0542858    -1.1821670    -0.2306483
H           1.6319434    -2.5552613     0.7101723
H           0.8979216    -2.8412374    -0.8936198
C           2.8818998    -2.0613118    -0.9803053
C           5.7718153     0.8669419     0.3981001
H           6.5092095     1.5898074     0.7334929
C           5.0477505     0.1321959     1.3363980
H           5.1998448     0.2487176     2.4035893
C           4.1073347    -0.7817529     0.8793366
F           3.4210630    -1.4911336     1.8035877
C           3.8513089    -1.0158645    -0.4769513
C           4.6166657    -0.2570171    -1.3770124
F           4.4103230    -0.4059862    -2.6934024
C           5.5558284     0.6816373    -0.9670957
H           6.0995564     1.2448669    -1.7173109
O           3.1845568    -2.7614897    -1.9272642
17
367_C8H6F2O_0-4-11-9 (60,) energy =    -583.3523410
C           1.4495189    -2.0539056    -0.3961441
H           0.9555510    -1.1392395    -0.7495411
H           1.4398846    -2.0264553     0.6974551
H           0.9020360    -2.9257504    -0.7604074
C           2.8672173    -2.0872192    -0.9250558
C           5.7202712     0.8778285     0.4357246
H           6.4514599     1.6084407     0.7678595
C           5.0743803     0.0708478     1.3727297
H           5.2844590     0.1388039     2.4342700
C           4.1411659    -0.8520351     0.9182832
F           3.5234185    -1.6410190     1.8273936
C           3.8186005    -1.0166666    -0.4307271
C           4.5057697    -0.1932327    -1.3301210
F           4.2252339    -0.2984488    -2.6400552
C           5.4360046     0.7559640    -0.9248443
H           5.9214962     1.3746417    -1.6713674
O           3.2397328    -2.8920787    -1.7543168
17
367_C8H6F2O_0-4-11-9 (75,) energy =    -583.3512683
C           1.5532347    -1.7713207    -1.4427682
H           2.0992020    -1.9985703    -2.3672489
H           1.1381501    -0.7625187    -1.5514226
H           0.7495354    -2.4966435    -1.2991817
C           2.5061227    -1.8158114    -0.2704159
C           5.8129877     0.9763509    -0.1473407
H           6.6447710     1.6718201    -0.0917391
C           4.5123811     1.4397724     0.0574218
H           4.2983280     2.4793695     0.2791392
C           3.4689833     0.5265939    -0.0216539
F           2.2017084     0.9591975     0.1696543
C           3.6584710    -0.8268438    -0.2951739
C           4.9772375    -1.2427460    -0.4812145
F           5.2018806    -2.5423508    -0.7550682
C           6.0568833    -0.3696985    -0.4246344
H           7.0586804    -0.7503534    -0.5900836
O           2.4052225    -2.6089048     0.6411964
17
367_C8H6F2O_0-4-11-9 (90,) energy =    -583.3505175
C           1.6623495    -1.8582261    -1.3520287
H           2.3158324    -2.2099850    -2.1602814
H           1.2847161    -0.8716221    -1.6483027
H           0.8306102    -2.5525533    -1.2149428
C           2.4572478    -1.7382503    -0.0732755
C           5.8523259     0.9507697    -0.0685754
H           6.7059855     1.6212523    -0.0506217
C           4.5853600     1.4398847     0.2544970
H           4.4202033     2.4767218     0.5256727
C           3.5109442     0.5595375     0.2258036
F           2.2740028     1.0153551     0.5203331
C           3.6426721    -0.7856692    -0.1097546
C           4.9250995    -1.2247919    -0.4294252
F           5.0783817    -2.5201861    -0.7789218
C           6.0344718    -0.3884527    -0.4180078
H           7.0086677    -0.7886873    -0.6760419
O           2.1975841    -2.3532713     0.9379660
17
367_C8H6F2O_0-4-11-9 (105,) energy =    -583.3510931
C           1.7882712    -1.9406167    -1.3805365
H           2.5370407    -2.3851675    -2.0467875
H           1.4477966    -1.0095202    -1.8510264
H           0.9447260    -2.6224848    -1.2537604
C           2.4093396    -1.6315342    -0.0375005
C           5.8763852     0.9655066    -0.0731810
H           6.7469356     1.6141843    -0.0737698
C           4.6429577     1.4661135     0.3467044
H           4.5195701     2.4936397     0.6704822
C           3.5448833     0.6142704     0.3458019
F           2.3452405     1.0928757     0.7302521
C           3.6232802    -0.7186570    -0.0570311
C           4.8715620    -1.1637867    -0.4872131
F           4.9712996    -2.4437216    -0.9130319
C           6.0030360    -0.3584032    -0.4971020
H           6.9496092    -0.7689949    -0.8304840
O           1.9676002    -2.0446926     1.0132422
17
367_C8H6F2O_0-4-11-9 (120,) energy =    -583.3521925
C           1.8720518    -2.0643367    -1.3581983
H           2.6710224    -2.5772525    -1.9023831
H           1.5511418    -1.2145993    -1.9747906
H           1.0272071    -2.7376566    -1.1988168
C           2.3703218    -1.5500086    -0.0246642
C           5.9079717     0.9542171    -0.0345366
H           6.7924970     1.5837053    -0.0270336
C           4.6988949     1.4568674     0.4473853
H           4.6074188     2.4685826     0.8266600
C           3.5816996     0.6304375     0.4384964
F           2.4129615     1.1232245     0.8840068
C           3.6124741    -0.6820989    -0.0439036
C           4.8432934    -1.1287365    -0.5288666
F           4.9224901    -2.3917459    -1.0072136
C           5.9921139    -0.3483502    -0.5277139
H           6.9203012    -0.7641146    -0.9036181
O           1.7870586    -1.7569324     1.0196405
17
367_C8H6F2O_0-4-11-9 (135,) energy =    -583.3527485
C           1.8889023    -2.1719356    -1.4319331
H           2.5945748    -2.9731649    -1.6712334
H           1.8965743    -1.4730526    -2.2768532
H           0.8886669    -2.5890348    -1.2998315
C           2.2963693    -1.4656663    -0.1539144
C           5.9117898     0.9332993    -0.1122256
H           6.8140459     1.5367423    -0.0887459
C           4.7319246     1.4301194     0.4408217
H           4.6789852     2.4143570     0.8926953
C           3.5907368     0.6374302     0.4113378
F           2.4596493     1.1404499     0.9275751
C           3.5640501    -0.6409777    -0.1668770
C           4.7728115    -1.0803609    -0.7185396
F           4.8200163    -2.3077577    -1.2842425
C           5.9426501    -0.3324295    -0.6971145
H           6.8465480    -0.7470688    -1.1291662
O           1.6137270    -1.5111125     0.8509732
17
367_C8H6F2O_0-4-11-9 (150,) energy =    -583.3532313
C           1.9647116    -2.2418928    -1.3191632
H           2.5352604    -3.1745508    -1.2541264
H           2.2366334    -1.7618041    -2.2643695
H           0.8985409    -2.4772142    -1.3040170
C           2.2685234    -1.3593875    -0.1209803
C           5.9215016     0.9850093    -0.0151472
H           6.8330759     1.5733923     0.0250959
C           4.7699378     1.4497326     0.6182051
H           4.7470452     2.3942080     1.1503175
C           3.6138879     0.6797004     0.5669501
F           2.5204737     1.1666582     1.1660226
C           3.5422630    -0.5510046    -0.1122355
C           4.7290098    -0.9566674    -0.7398306
F           4.7447814    -2.1305720    -1.4087146
C           5.9104620    -0.2285983    -0.7012462
H           6.7902137    -0.6192229    -1.2002548
O           1.4927872    -1.2874828     0.8143877
17
367_C8H6F2O_0-4-11-9 (165,) energy =    -583.3530562
C           2.1297791    -2.4538647    -1.0927314
H           2.7706059    -3.3141297    -0.8722508
H           2.4078837    -2.0951814    -2.0883938
H           1.0853210    -2.7710595    -1.0824530
C           2.2946866    -1.3808666    -0.0295136
C           5.9523746     0.9638019     0.2216066
H           6.8626343     1.5506272     0.2981746
C           4.7968244     1.3868053     0.8745982
H           4.7682130     2.2976271     1.4621574
C           3.6407232     0.6213377     0.7732986
F           2.5557269     1.0812543     1.4041853
C           3.5682365    -0.5726702     0.0240831
C           4.7666720    -0.9386944    -0.6132823
F           4.8063687    -2.0721051    -1.3468662
C           5.9447831    -0.2090874    -0.5305224
H           6.8259123    -0.5706128    -1.0486209
O           1.4038821    -1.1787556     0.7767255
17
367_C8H6F2O_0-4-11-9 (180,) energy =    -583.3527910
C           2.1713488    -2.5686064    -1.0262454
H           2.8755630    -3.3388778    -0.6957994
H           2.4218052    -2.3347877    -2.0657719
H           1.1506706    -2.9505206    -0.9673400
C           2.2456369    -1.3333921    -0.1438281
C           5.9592744     0.9125356     0.2504734
H           6.8797293     1.4788790     0.3545307
C           4.8143008     1.3140890     0.9337013
H           4.8043610     2.1862138     1.5778140
C           3.6425503     0.5790835     0.7908746
F           2.5786519     1.0143768     1.4715964
C           3.5445492    -0.5726958    -0.0222661
C           4.7377895    -0.9213604    -0.6823855
F           4.7622214    -2.0060884    -1.4864745
C           5.9271130    -0.2151012    -0.5666819
H           6.7975694    -0.5588514    -1.1140420
O           1.2548421    -0.9637550     0.4619898
