30
117_C14H11N3O2_0-5-6-17 (-165,) energy =    -854.8313941
N           0.1676822    -1.2906555     0.4539829
H           0.3851564    -2.2561203     0.2187919
C          -1.1514151    -1.0156699     0.8546123
C          -1.3907986     0.4032690     1.0847961
H          -2.3904819     0.6768000     1.4033920
C           1.1658112    -0.3761434     0.2624456
C           2.4591832    -0.9397286    -0.2233667
C          -0.4090034     1.3311635     0.8931847
H          -0.6216391     2.3847823     1.0576505
C           5.9540602     1.5583857    -0.0265804
H           6.8241725     2.2077018     0.0080558
C           5.0932937     1.4724063     1.0721550
H           5.2912341     2.0446493     1.9732234
C           0.9011371     0.9548337     0.4739407
H           1.6632081     1.7019650     0.3005498
C           3.9748556     0.6509142     1.0015072
H           3.2967856     0.5894527     1.8461702
C           3.6911344    -0.1129337    -0.1467049
C           4.6028299    -0.0626947    -1.2281228
N           4.4087516    -0.8128117    -2.4011948
H           4.8458498    -0.4637899    -3.2474510
C           5.7142448     0.7930501    -1.1605166
H           6.3983993     0.8344238    -2.0042993
C           4.0652054    -2.1573120    -2.4934916
O           4.1415198    -2.7574219    -3.5466501
N           2.3949639    -2.1383944    -0.6887555
C           3.6003049    -2.7823005    -1.1771282
H           3.3930181    -3.8337748    -1.3775381
H           4.4236045    -2.7113667    -0.4476284
O          -1.9689135    -1.9207052     0.9807271
30
117_C14H11N3O2_0-5-6-17 (-150,) energy =    -854.8301192
N           0.2253972    -1.2885105     0.6037439
H           0.4562364    -2.2668723     0.4525131
C          -1.0682073    -1.0186549     1.0892220
C          -1.3611195     0.4063225     1.1595141
H          -2.3400872     0.6766392     1.5392384
C           1.1396532    -0.3643035     0.1805705
C           2.4228418    -0.9189606    -0.3414195
C          -0.4547991     1.3427173     0.7532565
H          -0.7096903     2.3985599     0.8042333
C           5.9542348     1.5000582     0.0730986
H           6.8361289     2.1277051     0.1641599
C           5.0274216     1.4271039     1.1178351
H           5.1842409     1.9901693     2.0326270
C           0.8287178     0.9702538     0.2564156
H           1.5385529     1.7167492    -0.0747654
C           3.8957341     0.6343656     0.9739426
H           3.1645669     0.5889211     1.7739515
C           3.6653711    -0.1195243    -0.1929631
C           4.6348712    -0.0734243    -1.2239832
N           4.4839614    -0.7893808    -2.4238686
H           4.9680973    -0.4298149    -3.2394618
C           5.7609713     0.7536726    -1.0820124
H           6.4909268     0.7905800    -1.8866843
C           4.0898296    -2.1133944    -2.5776466
O           4.1854148    -2.6791328    -3.6483916
N           2.3458962    -2.1057590    -0.8338791
C           3.5512525    -2.7649361    -1.3040082
H           3.3226033    -3.8026883    -1.5482001
H           4.3458933    -2.7434753    -0.5400398
O          -1.8183179    -1.9346444     1.4079309
30
117_C14H11N3O2_0-5-6-17 (-135,) energy =    -854.8272481
N           0.3142603    -1.2499138     0.7447653
H           0.5767269    -2.2304137     0.7081148
C          -0.9457767    -0.9733202     1.3145614
C          -1.3174623     0.4299113     1.2111740
H          -2.2726233     0.7059091     1.6437049
C           1.1211194    -0.3544589     0.0989975
C           2.4006991    -0.9034551    -0.4439052
C          -0.5105945     1.3401156     0.5904505
H          -0.8241795     2.3789467     0.5203269
C           5.9494819     1.4394947     0.1896734
H           6.8374646     2.0470520     0.3391411
C           4.9641497     1.3733854     1.1801747
H           5.0799706     1.9228656     2.1091855
C           0.7431724     0.9615170     0.0273656
H           1.3827649     1.6857540    -0.4610761
C           3.8263294     0.6075221     0.9620295
H           3.0488811     0.5712563     1.7176967
C           3.6488321    -0.1307113    -0.2240536
C           4.6702536    -0.0832936    -1.2040501
N           4.5626033    -0.7622988    -2.4292386
H           5.0946479    -0.3899238    -3.2083729
C           5.8041354     0.7167336    -0.9871912
H           6.5755548     0.7541139    -1.7521869
C           4.1312804    -2.0648931    -2.6490309
O           4.2542640    -2.5947157    -3.7354577
N           2.3138490    -2.0737231    -0.9708681
C           3.5206042    -2.7447507    -1.4245314
H           3.2750003    -3.7662520    -1.7163145
H           4.2831001    -2.7736600    -0.6286703
O          -1.6016387    -1.8699926     1.8335060
30
117_C14H11N3O2_0-5-6-17 (-120,) energy =    -854.8236834
N           0.4234503    -1.1800685     0.9063612
H           0.7397411    -2.1389625     1.0099232
C          -0.7978214    -0.8798009     1.5506494
C          -1.2722842     0.4639330     1.2635019
H          -2.2021889     0.7559004     1.7384197
C           1.1031262    -0.3605646     0.0473140
C           2.3805660    -0.9086835    -0.5134075
C          -0.5877798     1.3018382     0.4297350
H          -0.9765958     2.2973733     0.2292313
C           5.9324174     1.3692563     0.3012821
H           6.8213364     1.9617120     0.4981745
C           4.9089727     1.2944695     1.2521920
H           4.9950743     1.8230232     2.1964096
C           0.6341724     0.9041946    -0.1876707
H           1.1823718     1.5747177    -0.8379427
C           3.7716284     0.5488712     0.9731059
H           2.9646196     0.5079553     1.6973079
C           3.6323042    -0.1633611    -0.2339199
C           4.6868187    -0.1009791    -1.1773303
N           4.6117417    -0.7353066    -2.4280635
H           5.1781447    -0.3460439    -3.1740181
C           5.8217342     0.6784811    -0.8981297
H           6.6199852     0.7275891    -1.6344293
C           4.1503729    -2.0133668    -2.7179413
O           4.2937729    -2.4985110    -3.8227863
N           2.2794586    -2.0517105    -1.0910955
C           3.4843130    -2.7296353    -1.5451340
H           3.2225548    -3.7302836    -1.8902189
H           4.2208346    -2.8143449    -0.7291858
O          -1.3366555    -1.7153059     2.2684086
30
117_C14H11N3O2_0-5-6-17 (-105,) energy =    -854.8205579
N           0.5502682    -1.0584364     1.0673147
H           0.9488146    -1.9546762     1.3270218
C          -0.6372240    -0.7224673     1.7610403
C          -1.2422664     0.5071366     1.2804673
H          -2.1534386     0.8200511     1.7777327
C           1.0918386    -0.3673951     0.0169917
C           2.3694377    -0.9191477    -0.5528898
C          -0.6970043     1.2165389     0.2482166
H          -1.1817752     2.1285156    -0.0920985
C           5.9238408     1.2951689     0.4100263
H           6.8134609     1.8723845     0.6452047
C           4.8801513     1.1969911     1.3367116
H           4.9499776     1.6935441     2.2994311
C           0.5011602     0.7934642    -0.3990034
H           0.9384584     1.3661317    -1.2077492
C           3.7441392     0.4700610     1.0092274
H           2.9224403     0.4121272     1.7159917
C           3.6248012    -0.2017442    -0.2231998
C           4.6950018    -0.1087954    -1.1462199
N           4.6366732    -0.6827666    -2.4265736
H           5.2242345    -0.2675271    -3.1415097
C           5.8305415     0.6498314    -0.8156574
H           6.6423466     0.7211144    -1.5351663
C           4.1556945    -1.9333853    -2.7928184
O           4.3117141    -2.3621734    -3.9192215
N           2.2526676    -2.0198593    -1.2012295
C           3.4523419    -2.6972512    -1.6741117
H           3.1747963    -3.6709349    -2.0787043
H           4.1714012    -2.8438971    -0.8516713
O          -1.0423707    -1.4456130     2.6647326
30
117_C14H11N3O2_0-5-6-17 (-90,) energy =    -854.8184398
N           0.6842837    -0.8835706     1.2046494
H           1.1787714    -1.6699426     1.6124943
C          -0.4809073    -0.5049074     1.9173020
C          -1.2277612     0.5497348     1.2572403
H          -2.1290410     0.8858538     1.7572810
C           1.0955834    -0.3720280     0.0020791
C           2.3761605    -0.9254112    -0.5666499
C          -0.8196277     1.0735012     0.0634506
H          -1.4085185     1.8565655    -0.4083213
C           5.9554960     1.2058732     0.5081378
H           6.8508875     1.7622103     0.7699995
C           4.9096858     1.0752694     1.4278817
H           4.9812835     1.5276338     2.4120104
C           0.3668895     0.6222981    -0.5868476
H           0.6908304     1.0472209    -1.5288668
C           3.7680704     0.3733224     1.0674313
H           2.9463920     0.2973960     1.7719432
C           3.6409732    -0.2427969    -0.1936829
C           4.7108965    -0.1090885    -1.1135445
N           4.6490524    -0.6057408    -2.4257285
H           5.2418314    -0.1519950    -3.1123772
C           5.8541116     0.6211905    -0.7464852
H           6.6652235     0.7201455    -1.4635398
C           4.1494214    -1.8212679    -2.8733647
O           4.3003500    -2.1781109    -4.0254297
N           2.2415901    -1.9685010    -1.2993115
C           3.4305122    -2.6409204    -1.8068213
H           3.1352926    -3.5823563    -2.2708024
H           4.1430198    -2.8509539    -0.9928129
O          -0.7544638    -1.0623212     2.9748668
30
117_C14H11N3O2_0-5-6-17 (-75,) energy =    -854.8170130
N           0.7739274    -0.6848945     1.3165517
H           1.3438421    -1.3398142     1.8406496
C          -0.3901119    -0.2684310     2.0109728
C          -1.2616028     0.5650038     1.2051572
H          -2.1652238     0.9226298     1.6855891
C           1.0823886    -0.3969415     0.0120275
C           2.3732098    -0.9355994    -0.5455017
C          -0.9621418     0.8597166    -0.0947131
H          -1.6433881     1.4769316    -0.6756246
C           5.9992072     1.1043921     0.5938664
H           6.9059173     1.6361094     0.8674513
C           4.9685094     0.9355097     1.5229932
H           5.0600507     1.3359195     2.5277568
C           0.2275504     0.3808519    -0.7177639
H           0.4630585     0.6208724    -1.7468385
C           3.8132749     0.2632034     1.1487477
H           3.0072682     0.1741046     1.8673057
C           3.6508033    -0.2879241    -0.1387891
C           4.7055927    -0.1069913    -1.0712605
N           4.6189207    -0.5171534    -2.4124421
H           5.2048447    -0.0217146    -3.0757825
C           5.8640506     0.5900027    -0.6874224
H           6.6606586     0.7195740    -1.4157741
C           4.1203315    -1.7057186    -2.9268498
O           4.2611331    -1.9950759    -4.0988802
N           2.2310798    -1.9214922    -1.3534479
C           3.4094976    -2.5790054    -1.9001767
H           3.1024900    -3.4930042    -2.4092869
H           4.1280811    -2.8352028    -1.1050246
O          -0.5635422    -0.6273823     3.1709958
30
117_C14H11N3O2_0-5-6-17 (-60,) energy =    -854.8153224
N           0.8183975    -0.4131980     1.4535774
H           1.4245626    -0.9140358     2.0909404
C          -0.3481602     0.0823893     2.0878126
C          -1.2995281     0.6599598     1.1587209
H          -2.2050563     1.0724503     1.5888901
C           1.0631770    -0.4274748     0.1044172
C           2.3592646    -0.9708191    -0.4302928
C          -1.0686443     0.6516155    -0.1876149
H          -1.8079775     1.0767807    -0.8622045
C           6.0488155     1.0045301     0.6566625
H           6.9668136     1.5268665     0.9096185
C           5.1032375     0.7134993     1.6428758
H           5.2736252     1.0040296     2.6747453
C           0.1241978     0.1026982    -0.7399888
H           0.3080288     0.1047302    -1.8062151
C           3.9293328     0.0573944     1.2964271
H           3.2053630    -0.1271664     2.0783341
C           3.6585161    -0.3539694    -0.0237286
C           4.6403778    -0.0677679    -1.0096196
N           4.4635864    -0.3727479    -2.3714347
H           4.9930957     0.1862007    -3.0318583
C           5.8160687     0.6141408    -0.6537699
H           6.5506483     0.8258515    -1.4266934
C           4.0032383    -1.5592439    -2.9275184
O           4.0976096    -1.7803318    -4.1184563
N           2.2097269    -1.9065976    -1.2968818
C           3.3803338    -2.5106366    -1.9123638
H           3.0787713    -3.4109877    -2.4483679
H           4.1455497    -2.7747624    -1.1646679
O          -0.4615221    -0.0186672     3.3053779
30
117_C14H11N3O2_0-5-6-17 (-45,) energy =    -854.8159431
N           0.9170052    -0.0512249     1.3902217
H           1.6806316    -0.1180473     2.0487930
C          -0.2377382     0.5354068     1.9564143
C          -1.3219314     0.6935699     1.0064422
H          -2.2353638     1.1387557     1.3842217
C           1.0814944    -0.4288938     0.0822508
C           2.3644524    -1.0482483    -0.3892462
C          -1.1802814     0.3104434    -0.2974316
H          -2.0065336     0.4468646    -0.9910572
C           6.0412810     0.8955942     0.7517637
H           6.9448035     1.4333245     1.0236410
C           5.2156950     0.3549075     1.7412882
H           5.4777306     0.4485593     2.7904269
C           0.0280061    -0.2635181    -0.7820640
H           0.1368643    -0.5771390    -1.8108609
C           4.0514734    -0.3091368     1.3726895
H           3.4480706    -0.7658593     2.1518655
C           3.6752766    -0.4570534     0.0245354
C           4.5709933     0.0101902    -0.9667995
N           4.3248642    -0.1878774    -2.3377232
H           4.7790220     0.4486495    -2.9840921
C           5.7292788     0.7079306    -0.5883660
H           6.3960889     1.0781651    -1.3630817
C           3.9393566    -1.3801211    -2.9452594
O           4.0056299    -1.5258126    -4.1491564
N           2.2296116    -1.9383818    -1.3052532
C           3.4207056    -2.4399864    -1.9706130
H           3.1661418    -3.3238319    -2.5559533
H           4.2252468    -2.6940066    -1.2620209
O          -0.2371495     0.8481743     3.1436068
30
117_C14H11N3O2_0-5-6-17 (-30,) energy =    -854.8186265
N           1.0110302     0.1683423     1.2689112
H           1.8540235     0.3129970     1.8097062
C          -0.1248402     0.7698156     1.8556178
C          -1.3144049     0.6680540     1.0322156
H          -2.2201003     1.1086643     1.4333668
C           1.0725789    -0.4271561     0.0337379
C           2.3523867    -1.0396677    -0.4521770
C          -1.2745492     0.0676305    -0.1948688
H          -2.1777334     0.0166659    -0.7982746
C           6.0478055     0.7768671     0.8228639
H           6.9582563     1.2815395     1.1324023
C           5.1946052     0.2123883     1.7751029
H           5.4420412     0.2537282     2.8311524
C          -0.0768670    -0.4954563    -0.7147290
H          -0.0466074    -0.9838146    -1.6785148
C           4.0215433    -0.4081516     1.3592544
H           3.3856201    -0.8822309     2.1023383
C           3.6656169    -0.4834745    -0.0012354
C           4.5887354     0.0006484    -0.9571401
N           4.3627366    -0.1456226    -2.3376698
H           4.8385762     0.5038744    -2.9548807
C           5.7555907     0.6543872    -0.5296330
H           6.4451411     1.0409621    -1.2759266
C           3.9702210    -1.3131586    -2.9883631
O           4.0553882    -1.4232923    -4.1946492
N           2.2264614    -1.9051108    -1.3934831
C           3.4214558    -2.3971893    -2.0556725
H           3.1675395    -3.2584249    -2.6741489
H           4.2117946    -2.6841145    -1.3434558
O          -0.0268753     1.3064116     2.9556600
30
117_C14H11N3O2_0-5-6-17 (-15,) energy =    -854.8214189
N           1.0652143     0.3597375     1.1286259
H           1.9424224     0.6383619     1.5516262
C          -0.0576489     0.9619281     1.7388743
C          -1.3057028     0.6527558     1.0682116
H          -2.2042632     1.0845247     1.4942778
C           1.0611253    -0.4161571    -0.0040640
C           2.3434665    -0.9961374    -0.5216819
C          -1.3299792    -0.1264191    -0.0548327
H          -2.2783189    -0.3338458    -0.5448036
C           6.0420658     0.6925461     0.9075351
H           6.9568397     1.1608640     1.2587392
C           5.1391100     0.1361044     1.8180804
H           5.3501663     0.1498876     2.8827163
C          -0.1437884    -0.6794709    -0.6087716
H          -0.1610150    -1.3065084    -1.4890380
C           3.9621495    -0.4375912     1.3494015
H           3.2736531    -0.8903139     2.0577440
C           3.6528548    -0.4747977    -0.0247832
C           4.6195253     0.0065107    -0.9382922
N           4.4331036    -0.0903636    -2.3285595
H           4.9447420     0.5646659    -2.9102459
C           5.7910965     0.6125188    -0.4562399
H           6.5157491     0.9969754    -1.1696199
C           4.0239077    -1.2225476    -3.0289896
O           4.1379908    -1.2946306    -4.2356403
N           2.2258092    -1.8262204    -1.4957852
C           3.4236122    -2.3216002    -2.1474194
H           3.1648645    -3.1548295    -2.8013724
H           4.1893781    -2.6526970    -1.4271790
O           0.0961914     1.6650442     2.7336887
30
117_C14H11N3O2_0-5-6-17 (0,) energy =    -854.8238000
N           1.0897754     0.5258441     0.9824732
H           1.9788461     0.9064684     1.2854739
C          -0.0201194     1.1307602     1.6132197
C          -1.2923274     0.6395143     1.1192478
H          -2.1822054     1.0636278     1.5704814
C           1.0488575    -0.4100946    -0.0212835
C           2.3282965    -0.9513710    -0.5822910
C          -1.3518340    -0.2982959     0.1260463
H          -2.3198462    -0.6433009    -0.2294405
C           6.0319456     0.5978686     0.9821795
H           6.9521149     1.0255789     1.3693960
C           5.0755583     0.0705649     1.8551397
H           5.2477242     0.0697932     2.9268311
C          -0.1779553    -0.8442705    -0.4599474
H          -0.2198682    -1.5916231    -1.2399677
C           3.8946681    -0.4512115     1.3394762
H           3.1545795    -0.8646290     2.0185950
C           3.6349354    -0.4690585    -0.0458032
C           4.6460925    -0.0058475    -0.9203772
N           4.4984103    -0.0570934    -2.3173611
H           5.0519230     0.5943103    -2.8637259
C           5.8231249     0.5471813    -0.3899616
H           6.5838220     0.9167718    -1.0729453
C           4.0619169    -1.1472014    -3.0654595
O           4.2041579    -1.1839248    -4.2707634
N           2.2069396    -1.7423410    -1.5881704
C           3.4003946    -2.2511373    -2.2367937
H           3.1265286    -3.0501263    -2.9264578
H           4.1384172    -2.6366891    -1.5143608
O           0.1613924     1.9798901     2.4813087
30
117_C14H11N3O2_0-5-6-17 (15,) energy =    -854.8253743
N           0.8381825     0.6904274     0.0484401
H           1.4514574     1.2382662    -0.5444476
C          -0.4260569     1.2839441     0.2595691
C          -1.3095373     0.4668551     1.0706147
H          -2.2948406     0.8727124     1.2703706
C           1.2521845    -0.5318866     0.5167783
C           2.6302510    -1.0110436     0.1840709
C          -0.9115502    -0.7511905     1.5471868
H          -1.5965709    -1.3416188     2.1509768
C           5.4004115     1.8690821    -1.4213115
H           6.0754899     2.6036645    -1.8506220
C           4.6569525     2.1770422    -0.2774075
H           4.7541861     3.1473997     0.1991417
C           0.3843029    -1.2717034     1.2803566
H           0.7062375    -2.2330449     1.6563905
C           3.7825715     1.2308080     0.2425891
H           3.1984719     1.4718335     1.1256509
C           3.6308839    -0.0415429    -0.3454462
C           4.4365477    -0.3612326    -1.4646814
N           4.3782039    -1.6170867    -2.0912640
H           4.6697151    -1.6622043    -3.0618625
C           5.2967953     0.6115664    -2.0008247
H           5.8983272     0.3585640    -2.8702230
C           4.3769389    -2.8643971    -1.4743826
O           4.5473748    -3.8837418    -2.1120572
N           2.8347519    -2.2711138     0.3361431
C           4.1463378    -2.8158140     0.0366232
H           4.2044774    -3.8411870     0.4030730
H           4.9562371    -2.2240752     0.4942563
O          -0.6729437     2.3827418    -0.2289604
30
117_C14H11N3O2_0-5-6-17 (30,) energy =    -854.8257957
N           0.7713036     0.5890989    -0.1293154
H           1.3312919     1.0537224    -0.8355448
C          -0.4869000     1.1918009     0.0896467
C          -1.2797717     0.5002227     1.0906036
H          -2.2563777     0.9196444     1.3045737
C           1.2568443    -0.5306696     0.4991881
C           2.6085375    -1.0391418     0.1138276
C          -0.8122712    -0.6181775     1.7221161
H          -1.4308303    -1.1131040     2.4669973
C           5.4347502     1.8767898    -1.3104705
H           6.1283954     2.6216877    -1.6895770
C           4.6332439     2.1598257    -0.1994354
H           4.7016220     3.1218333     0.2985323
C           0.4736359    -1.1555084     1.4349980
H           0.8481805    -2.0431629     1.9264840
C           3.7379547     1.2013579     0.2572879
H           3.1031921     1.4223852     1.1099530
C           3.6257930    -0.0609893    -0.3595511
C           4.4762174    -0.3508417    -1.4538737
N           4.4312479    -1.5824646    -2.1273179
H           4.7655621    -1.5920957    -3.0850429
C           5.3602497     0.6341089    -1.9255165
H           5.9988989     0.4041863    -2.7746103
C           4.3786350    -2.8543988    -1.5657019
O           4.5561618    -3.8489637    -2.2399584
N           2.7829842    -2.3073414     0.2277305
C           4.0908213    -2.8686137    -0.0648871
H           4.1141215    -3.9109004     0.2548315
H           4.8969850    -2.3184544     0.4479715
O          -0.8030310     2.1954054    -0.5420699
30
117_C14H11N3O2_0-5-6-17 (45,) energy =    -854.8248574
N           0.6727965     0.4547985    -0.2755090
H           1.1634322     0.8170244    -1.0859666
C          -0.5839444     1.0573168    -0.0461436
C          -1.2639492     0.5217523     1.1207770
H          -2.2342843     0.9482421     1.3489262
C           1.2518973    -0.5267239     0.4888604
C           2.5816253    -1.0587860     0.0594290
C          -0.7039187    -0.4630353     1.8845334
H          -1.2398322    -0.8411695     2.7518352
C           5.4578859     1.8859165    -1.1866478
H           6.1668734     2.6392774    -1.5176921
C           4.6075017     2.1439129    -0.1060353
H           4.6511224     3.0954110     0.4144545
C           0.5742162    -1.0108802     1.5759325
H           1.0183790    -1.7990874     2.1691238
C           3.6953361     1.1747706     0.2890402
H           3.0207002     1.3758457     1.1156420
C           3.6167017    -0.0755397    -0.3561070
C           4.5048295    -0.3358185    -1.4279640
N           4.4744362    -1.5399141    -2.1493889
H           4.8425578    -1.5168610    -3.0943606
C           5.4083639     0.6597905    -1.8363374
H           6.0787052     0.4527346    -2.6666936
C           4.3632217    -2.8336259    -1.6511667
O           4.5365052    -3.7993751    -2.3675522
N           2.7243502    -2.3332930     0.1313396
C           4.0257097    -2.9132928    -0.1638359
H           4.0145949    -3.9703718     0.1035865
H           4.8282665    -2.4101600     0.4002479
O          -0.9896911     1.9357660    -0.8004993
30
117_C14H11N3O2_0-5-6-17 (60,) energy =    -854.8228529
N           0.5554543     0.2790229    -0.4055094
H           0.9610143     0.5076111    -1.3067708
C          -0.7059178     0.8733436    -0.1745275
C          -1.2602424     0.5348285     1.1252662
H          -2.2278026     0.9639134     1.3601253
C           1.2420469    -0.5245040     0.4675203
C           2.5594943    -1.0743515     0.0127710
C          -0.5928533    -0.2766013     1.9980837
H          -1.0375063    -0.5101466     2.9625576
C           5.4925719     1.8793160    -1.0610666
H           6.2171582     2.6362965    -1.3470837
C           4.6099508     2.1122518    -0.0006782
H           4.6430403     3.0485350     0.5475016
C           0.6807492    -0.8312499     1.6770536
H           1.2052754    -1.4882559     2.3585884
C           3.6798186     1.1389827     0.3373016
H           2.9785949     1.3192324     1.1464813
C           3.6158032    -0.0924191    -0.3438472
C           4.5288440    -0.3245719    -1.4013022
N           4.4995636    -1.4976684    -2.1719923
H           4.8927358    -1.4393563    -3.1052592
C           5.4526726     0.6748476    -1.7507487
H           6.1436633     0.4893618    -2.5692148
C           4.3373534    -2.8094490    -1.7406588
O           4.5014055    -3.7446247    -2.4989901
N           2.6692415    -2.3526152     0.0359425
C           3.9612438    -2.9527181    -0.2681485
H           3.9165389    -4.0209161    -0.0538998
H           4.7621818    -2.4997058     0.3386841
O          -1.2137029     1.5874301    -1.0328624
30
117_C14H11N3O2_0-5-6-17 (75,) energy =    -854.8205651
N           0.4404500     0.0686617    -0.4814316
H           0.7547533     0.1176747    -1.4446860
C          -0.8389256     0.6323028    -0.2635854
C          -1.2694206     0.5376863     1.1204455
H          -2.2428346     0.9563549     1.3497044
C           1.2373939    -0.5123228     0.4676069
C           2.5544855    -1.0707965     0.0067185
C          -0.4876496    -0.0501192     2.0734087
H          -0.8432941    -0.1088286     3.0993785
C           5.5486679     1.8697986    -0.9250457
H           6.2890878     2.6240004    -1.1757088
C           4.6585926     2.0788487     0.1339237
H           4.7005360     2.9942373     0.7158371
C           0.7913566    -0.5976296     1.7577938
H           1.4025461    -1.0818243     2.5090598
C           3.7089479     1.1099630     0.4269135
H           2.9991866     1.2734697     1.2318476
C           3.6325903    -0.0956472    -0.2974519
C           4.5493785    -0.3020358    -1.3575986
N           4.5033371    -1.4380250    -2.1815250
H           4.9078013    -1.3455759    -3.1072036
C           5.4938150     0.6933652    -1.6602824
H           6.1878633     0.5274593    -2.4804113
C           4.3031016    -2.7646236    -1.8177248
O           4.4509432    -3.6645157    -2.6208456
N           2.6285752    -2.3498752    -0.0361045
C           3.9073959    -2.9706116    -0.3586293
H           3.8310353    -4.0462522    -0.1974647
H           4.7124595    -2.5696054     0.2781982
O          -1.4558963     1.1285087    -1.1999822
30
117_C14H11N3O2_0-5-6-17 (90,) energy =    -854.8188924
N           0.3398731    -0.1634834    -0.5162120
H           0.5812680    -0.3145089    -1.4898360
C          -0.9631739     0.3532849    -0.3167024
C          -1.2955976     0.5211353     1.0867832
H          -2.2816951     0.9162298     1.3031860
C           1.2348731    -0.4912056     0.4636722
C           2.5562668    -1.0518587     0.0063113
C          -0.4127356     0.1885485     2.0738591
H          -0.6973588     0.3172817     3.1155258
C           5.6292173     1.8486581    -0.8018420
H           6.3905458     2.5913539    -1.0223781
C           4.7455628     2.0371815     0.2658707
H           4.8116579     2.9263715     0.8850228
C           0.8816229    -0.3326112     1.7758726
H           1.5704352    -0.6159425     2.5624299
C           3.7695470     1.0837221     0.5198371
H           3.0616879     1.2390275     1.3270712
C           3.6586763    -0.0899666    -0.2514332
C           4.5666493    -0.2737468    -1.3244794
N           4.4878015    -1.3643914    -2.2061075
H           4.8947762    -1.2345870    -3.1262241
C           5.5382022     0.7071266    -1.5862201
H           6.2244213     0.5572985    -2.4159894
C           4.2571926    -2.7028481    -1.9122853
O           4.3851624    -3.5638647    -2.7601950
N           2.5911896    -2.3266718    -0.1196897
C           3.8512543    -2.9710610    -0.4670948
H           3.7400592    -4.0503411    -0.3596652
H           4.6652194    -2.6271994     0.1911359
O          -1.6740803     0.6047847    -1.2834206
30
117_C14H11N3O2_0-5-6-17 (105,) energy =    -854.8181832
N           0.2589503    -0.3906379    -0.4854801
H           0.4578183    -0.7383597    -1.4174680
C          -1.0712631     0.0566469    -0.3014029
C          -1.3415384     0.4784758     1.0613312
H          -2.3452485     0.8337558     1.2653266
C           1.2311794    -0.4512688     0.4729071
C           2.5553629    -1.0123272     0.0208754
C          -0.3824424     0.4117749     2.0306428
H          -0.6217246     0.7190561     3.0460223
C           5.7259010     1.8154642    -0.6931310
H           6.5118893     2.5383194    -0.8918852
C           4.8622365     1.9884101     0.3929808
H           4.9667979     2.8471377     1.0487816
C           0.9348319    -0.0588686     1.7508364
H           1.6771091    -0.1393406     2.5354698
C           3.8546155     1.0613448     0.6188370
H           3.1618093     1.2182971     1.4368735
C           3.6890873    -0.0752002    -0.1973163
C           4.5759645    -0.2412634    -1.2923126
N           4.4479628    -1.2817911    -2.2279958
H           4.8484953    -1.1157454    -3.1451181
C           5.5799959     0.7145052    -1.5246894
H           6.2481805     0.5758857    -2.3709365
C           4.1875005    -2.6269523    -1.9993491
O           4.2846467    -3.4487523    -2.8890492
N           2.5484282    -2.2772776    -0.1890779
C           3.7841754    -2.9487864    -0.5652493
H           3.6362101    -4.0273055    -0.5045491
H           4.6126566    -2.6615167     0.1018262
O          -1.8523716     0.0540204    -1.2463717
30
117_C14H11N3O2_0-5-6-17 (120,) energy =    -854.8177825
N           0.2052996    -0.6117154    -0.4247593
H           0.3979286    -1.1458982    -1.2655410
C          -1.1483710    -0.2433133    -0.2554473
C          -1.3978339     0.4224016     1.0107759
H          -2.4191240     0.7325343     1.2006789
C           1.2243450    -0.4042090     0.4637254
C           2.5533016    -0.9667248     0.0271353
C          -0.3965501     0.6199081     1.9168517
H          -0.6179089     1.0984741     2.8679575
C           5.8357109     1.7634736    -0.6094220
H           6.6469957     2.4615816    -0.7941789
C           5.0137120     1.9105975     0.5116247
H           5.1763170     2.7242445     1.2116162
C           0.9444423     0.2095898     1.6571867
H           1.7069808     0.3291807     2.4147036
C           3.9729297     1.0166353     0.7193638
H           3.3232934     1.1656142     1.5707471
C           3.7256175    -0.0642294    -0.1499689
C           4.5769885    -0.2074360    -1.2776785
N           4.3893234    -1.1933741    -2.2621006
H           4.7712410    -0.9907478    -3.1798218
C           5.6151335     0.7162498    -1.4910364
H           6.2523272     0.5920084    -2.3629995
C           4.1097409    -2.5425056    -2.0889292
O           4.1719600    -3.3267488    -3.0145632
N           2.5112424    -2.2179679    -0.2579460
C           3.7235929    -2.9107484    -0.6614800
H           3.5466162    -3.9863370    -0.6370542
H           4.5683474    -2.6685914     0.0030539
O          -1.9673698    -0.4977815    -1.1317351
30
117_C14H11N3O2_0-5-6-17 (135,) energy =    -854.8198101
N           0.2068374    -0.9622030    -0.2470618
H           0.4239227    -1.7570428    -0.8415617
C          -1.1577409    -0.6251432    -0.1477813
C          -1.4101575     0.4365098     0.8127625
H          -2.4408270     0.7539388     0.9242309
C           1.2353582    -0.4398881     0.4913075
C           2.5820654    -1.0112102     0.1422945
C          -0.3950435     0.9904842     1.5369400
H          -0.6116754     1.7785968     2.2541962
C           5.8407040     1.7412034    -0.4673906
H           6.6331374     2.4609377    -0.6507882
C           5.2081533     1.6864912     0.7783908
H           5.5137887     2.3506875     1.5808734
C           0.9572544     0.5673694     1.3808238
H           1.7369006     1.0397034     1.9581889
C           4.1815713     0.7740707     0.9843372
H           3.7102988     0.7224474     1.9590982
C           3.7591300    -0.1097135    -0.0261840
C           4.4664350    -0.1025366    -1.2526424
N           4.1717536    -1.0011945    -2.2946211
H           4.4440625    -0.7210601    -3.2310005
C           5.4809110     0.8460812    -1.4650440
H           6.0014031     0.8517089    -2.4194469
C           3.9971343    -2.3770793    -2.1815420
O           4.0175532    -3.1009600    -3.1560711
N           2.5544808    -2.2417682    -0.2282692
C           3.7621419    -2.8573020    -0.7482698
H           3.6343102    -3.9393997    -0.7832205
H           4.6502673    -2.6158331    -0.1430607
O          -1.9903647    -1.2050103    -0.8364607
30
117_C14H11N3O2_0-5-6-17 (150,) energy =    -854.8240571
N           0.1628429    -1.1160075    -0.0732560
H           0.3780525    -1.9913432    -0.5443827
C          -1.1999041    -0.8047059     0.0838803
C          -1.4186454     0.4208535     0.8378635
H          -2.4498696     0.7242950     0.9795804
C           1.2251299    -0.4285863     0.4491152
C           2.5632624    -1.0007257     0.0854219
C          -0.3722696     1.1431003     1.3322783
H          -0.5622048     2.0581647     1.8881828
C           5.8824506     1.7068717    -0.3475315
H           6.6941387     2.4158859    -0.4821308
C           5.2265531     1.6080395     0.8833930
H           5.5333591     2.2254740     1.7219989
C           0.9797415     0.7354746     1.1356739
H           1.7866359     1.3487734     1.5061238
C           4.1765868     0.7095959     1.0277864
H           3.6801073     0.6197900     1.9882301
C           3.7528628    -0.1110938    -0.0342864
C           4.4849684    -0.0668789    -1.2440286
N           4.1930023    -0.9197910    -2.3243872
H           4.4818129    -0.6088693    -3.2459204
C           5.5235568     0.8670921    -1.3933446
H           6.0643662     0.9041456    -2.3356643
C           3.9934600    -2.2957942    -2.2642848
O           4.0136117    -2.9836144    -3.2646188
N           2.5324338    -2.2221072    -0.3173688
C           3.7370321    -2.8286241    -0.8520181
H           3.5988698    -3.9070748    -0.9317141
H           4.6220349    -2.6218644    -0.2294755
O          -2.0641074    -1.5285068    -0.3988355
30
117_C14H11N3O2_0-5-6-17 (165,) energy =    -854.8280056
N           0.1424814    -1.2163183     0.0975575
H           0.3578058    -2.1347105    -0.2841917
C          -1.2120832    -0.9254118     0.3320189
C          -1.4179381     0.4002022     0.8995377
H          -2.4452630     0.6884723     1.0922751
C           1.2132962    -0.4158165     0.3883493
C           2.5385575    -0.9857345    -0.0101470
C          -0.3670403     1.2291502     1.1620843
H          -0.5490333     2.2180801     1.5759661
C           5.9218633     1.6630818    -0.2358273
H           6.7550791     2.3554078    -0.3144456
C           5.2036346     1.5540694     0.9589628
H           5.4813335     2.1479845     1.8242708
C           0.9790477     0.8375564     0.9004676
H           1.7896155     1.5282405     1.0781267
C           4.1283865     0.6767134     1.0321130
H           3.5736883     0.5841271     1.9601833
C           3.7423166    -0.1125725    -0.0675978
C           4.5299895    -0.0553712    -1.2410897
N           4.2636737    -0.8709515    -2.3560495
H           4.5983851    -0.5416062    -3.2553492
C           5.5951929     0.8567516    -1.3183563
H           6.1804981     0.9045409    -2.2331826
C           4.0252090    -2.2419681    -2.3449547
O           4.0650500    -2.9001375    -3.3645580
N           2.5019180    -2.1997713    -0.4359049
C           3.7076620    -2.8120436    -0.9599668
H           3.5498412    -3.8840696    -1.0801260
H           4.5770653    -2.6467077    -0.3035512
O          -2.0844294    -1.7418651     0.0564113
30
117_C14H11N3O2_0-5-6-17 (180,) energy =    -854.8306557
N           0.1354633    -1.2637817     0.2875365
H           0.3484214    -2.2096301    -0.0215965
C          -1.2042163    -0.9801153     0.6015153
C          -1.4135580     0.4065670     0.9974483
H          -2.4297033     0.6866762     1.2517364
C           1.1869729    -0.3907178     0.3358235
C           2.4952350    -0.9600779    -0.1070906
C          -0.3824302     1.2988917     1.0298958
H          -0.5695796     2.3314959     1.3146163
C           5.9394252     1.6161127    -0.1269115
H           6.7926376     2.2879060    -0.1500968
C           5.1510689     1.5153024     1.0236056
H           5.3914414     2.0965792     1.9084431
C           0.9487021     0.9151049     0.6908420
H           1.7449476     1.6452533     0.6860871
C           4.0521911     0.6646536     1.0265165
H           3.4352294     0.5852507     1.9155940
C           3.7140655    -0.1090302    -0.1000161
C           4.5630038    -0.0531876    -1.2304392
N           4.3300016    -0.8362235    -2.3750907
H           4.7127167    -0.4947513    -3.2503222
C           5.6533288     0.8319596    -1.2369977
H           6.2874563     0.8784364    -2.1187425
C           4.0370388    -2.1955706    -2.4138866
O           4.0916619    -2.8247822    -3.4511334
N           2.4438908    -2.1669740    -0.5520762
C           3.6487989    -2.7947215    -1.0601461
H           3.4656154    -3.8576384    -1.2192376
H           4.4980594    -2.6756317    -0.3679417
O          -2.0636908    -1.8513393     0.5267318
