25
445_C10H11N3O_12-6-7-8 (-165,) energy =    -627.1239022
C           5.8164000     1.0651619    -0.2327756
H           6.6457352     1.7529096    -0.3687711
C           5.3657605     0.7321571     1.0478216
H           5.8403850     1.1408834     1.9370883
N           4.3377654    -0.0883894     1.2499835
C           3.7130880    -0.6348400     0.2024573
C           4.1121332    -0.4006149    -1.1317132
O           3.6440416    -0.9506787    -2.2769978
C           2.3874607    -1.6319807    -2.3721708
H           2.2429663    -1.7934530    -3.4423932
H           1.5774972    -1.0280555    -1.9598126
H           2.4155619    -2.5984411    -1.8589424
C           5.1819746     0.4925491    -1.3223055
H           5.4932265     0.6970598    -2.3419003
C           1.3826291    -3.0610654     1.4523782
H           1.0526487    -3.9667009     1.9416451
C           2.6890953    -2.6958715     1.1866643
C           3.9841879    -3.3778915     1.4928435
H           3.7912320    -4.3542462     1.9451656
H           4.5871827    -2.7853657     2.1896698
H           4.5871701    -3.5354980     0.5901844
N           2.6166754    -1.4870957     0.5419853
N           1.3328013    -1.0371202     0.4147610
C           0.5939452    -1.9994826     0.9554326
H          -0.4837375    -1.8955413     0.9702583
25
445_C10H11N3O_12-6-7-8 (-150,) energy =    -627.1235055
C           5.8060217     1.0710852    -0.2528238
H           6.6488581     1.7361583    -0.4163565
C           5.2297172     0.9486636     1.0144397
H           5.6143307     1.5097550     1.8632136
N           4.1956111     0.1441261     1.2578747
C           3.6812628    -0.5720189     0.2566468
C           4.1828037    -0.5236209    -1.0605676
O           3.7722883    -1.2522138    -2.1289444
C           2.4012280    -1.6481004    -2.2883396
H           2.2876163    -1.8461522    -3.3565303
H           1.7205079    -0.8538232    -1.9742729
H           2.1790432    -2.5575073    -1.7225745
C           5.2745206     0.3270037    -1.2953501
H           5.6762803     0.3770445    -2.3024925
C           1.3846008    -3.0959881     1.3745294
H           1.0678984    -4.0470686     1.7790167
C           2.6842785    -2.7019009     1.1135022
C           3.9905889    -3.4046556     1.3065605
H           3.8159019    -4.4160790     1.6827019
H           4.6252455    -2.8763915     2.0276542
H           4.5543424    -3.4844411     0.3691361
N           2.5938429    -1.4307365     0.6089202
N           1.3093014    -0.9755495     0.5522482
C           0.5837293    -1.9901543     1.0104772
H          -0.4931686    -1.8909619     1.0640071
25
445_C10H11N3O_12-6-7-8 (-135,) energy =    -627.1235692
C           5.7954476     1.0986776    -0.2934115
H           6.6352417     1.7589709    -0.4885237
C           5.0938249     1.1777720     0.9119590
H           5.3734661     1.9009979     1.6749287
N           4.0685286     0.3768753     1.2082294
C           3.6833908    -0.5239254     0.3057392
C           4.2915970    -0.6599006    -0.9576605
O           3.9361871    -1.5682910    -1.9093060
C           2.5438937    -1.7209743    -2.2414553
H           2.5246556    -2.0205395    -3.2920381
H           2.0041595    -0.7784785    -2.1129096
H           2.0715479    -2.4944329    -1.6301661
C           5.3845664     0.1675982    -1.2394240
H           5.8744112     0.0683742    -2.2030917
C           1.3900639    -3.0957123     1.3140804
H           1.0662868    -4.0796938     1.6231196
C           2.6824464    -2.7124878     1.0063599
C           3.9659060    -3.4815581     0.9981451
H           3.7813174    -4.5106064     1.3175529
H           4.7038383    -3.0427875     1.6802837
H           4.4138547    -3.5099031    -0.0020955
N           2.6069198    -1.3812052     0.6822035
N           1.3394347    -0.8862024     0.7703011
C           0.6092019    -1.9284203     1.1507012
H          -0.4568805    -1.8051967     1.2946331
25
445_C10H11N3O_12-6-7-8 (-120,) energy =    -627.1238636
C           5.7250408     1.0972820    -0.2824062
H           6.5573511     1.7636997    -0.4881201
C           5.0170652     1.1946103     0.9164896
H           5.2803077     1.9430312     1.6608653
N           4.0077687     0.3798471     1.2359678
C           3.6426200    -0.5493589     0.3559049
C           4.2506204    -0.6972469    -0.9063042
O           3.9014786    -1.6655874    -1.8086702
C           2.5707987    -1.5936267    -2.3502228
H           2.4554532    -2.4864847    -2.9671130
H           2.4682060    -0.6993553    -2.9774462
H           1.8077239    -1.5786530    -1.5687146
C           5.3333925     0.1326107    -1.2057884
H           5.8328939     0.0123623    -2.1622509
C           1.4022669    -3.1602453     1.3846059
H           1.0940644    -4.1532508     1.6802634
C           2.6795142    -2.7664232     1.0325481
C           3.9599338    -3.5358645     0.9551465
H           3.7921459    -4.5636089     1.2878852
H           4.7346137    -3.0964276     1.5949245
H           4.3489609    -3.5645144    -0.0688221
N           2.5894802    -1.4255836     0.7513412
N           1.3248723    -0.9361033     0.9079287
C           0.6132051    -1.9918810     1.2876572
H          -0.4461943    -1.8755035     1.4789790
25
445_C10H11N3O_12-6-7-8 (-105,) energy =    -627.1253647
C           6.1583359     0.4239125    -0.4753535
H           7.0980753     0.9295792    -0.6757314
C           5.6565877     0.3358655     0.8208269
H           6.1902108     0.7769738     1.6600682
N           4.5155480    -0.2930949     1.1171061
C           3.8145273    -0.8616220     0.1354461
C           4.2207790    -0.8192273    -1.2189031
O           3.6175559    -1.5157013    -2.2262793
C           2.4601114    -0.9231452    -2.8450949
H           2.1148647    -1.6572831    -3.5760194
H           2.7409794     0.0022172    -3.3665247
H           1.6836317    -0.7282271    -2.1046012
C           5.4295864    -0.1756157    -1.4985894
H           5.7806460    -0.1752334    -2.5262067
C           1.2533171    -2.8369693     1.6840104
H           0.8267066    -3.5531742     2.3719147
C           2.5889488    -2.5038180     1.5710066
C           3.7766758    -3.0137700     2.3234363
H           3.4741961    -3.8564997     2.9512810
H           4.2116969    -2.2372394     2.9597141
H           4.5662331    -3.3608370     1.6467589
N           2.6584625    -1.5785849     0.5555836
N           1.4308585    -1.2905619     0.0323510
C           0.5888968    -2.0562167     0.7136088
H          -0.4684815    -2.0176533     0.4841522
25
445_C10H11N3O_12-6-7-8 (-90,) energy =    -627.1272074
C           6.1283532     0.4050554    -0.5565091
H           7.0416015     0.9439706    -0.7896002
C           5.7164518     0.2358073     0.7629211
H           6.2986208     0.6418679     1.5875295
N           4.6023367    -0.4204478     1.1009949
C           3.8472530    -0.9483125     0.1372281
C           4.1783905    -0.8510310    -1.2340546
O           3.4938114    -1.5121564    -2.2130042
C           2.4820872    -0.7570560    -2.8985260
H           2.0841425    -1.4253287    -3.6649833
H           2.9185907     0.1285308    -3.3802309
H           1.6908980    -0.4690460    -2.2033346
C           5.3459309    -0.1589831    -1.5614926
H           5.6325212    -0.0992048    -2.6074707
C           1.2640176    -2.8882115     1.6936614
H           0.8166115    -3.5715770     2.4015060
C           2.5929495    -2.5178099     1.6424132
C           3.7402399    -2.9489245     2.4999278
H           3.4114759    -3.7552013     3.1618448
H           4.1222364    -2.1236163     3.1071617
H           4.5775160    -3.3221740     1.8990112
N           2.6969747    -1.6553399     0.5730723
N           1.4973728    -1.4512262    -0.0474426
C           0.6384403    -2.1969038     0.6324201
H          -0.4033703    -2.2100518     0.3380295
25
445_C10H11N3O_12-6-7-8 (-75,) energy =    -627.1274436
C           6.0535958     0.4599086    -0.5765615
H           6.9317778     1.0446910    -0.8328162
C           5.7111916     0.2358797     0.7550753
H           6.3188213     0.6372247     1.5633828
N           4.6292469    -0.4572532     1.1244698
C           3.8512450    -0.9789673     0.1766582
C           4.1384737    -0.8657563    -1.2014319
O           3.4074767    -1.5391201    -2.1350689
C           2.5447412    -0.7426452    -2.9546940
H           2.1334192    -1.4215088    -3.7043764
H           3.1002586     0.0595432    -3.4580925
H           1.7369026    -0.3243021    -2.3470309
C           5.2518414    -0.1070437    -1.5653793
H           5.4960048    -0.0049608    -2.6188665
C           1.2434701    -2.8789057     1.7396144
H           0.7833730    -3.5551137     2.4462361
C           2.5801220    -2.5385212     1.6839209
C           3.7242838    -2.9934529     2.5332256
H           3.3848197    -3.7926760     3.1982222
H           4.1276992    -2.1756923     3.1371132
H           4.5494476    -3.3834420     1.9260986
N           2.6982093    -1.6743801     0.6184124
N           1.5003680    -1.4375909     0.0029407
C           0.6289905    -2.1671889     0.6841596
H          -0.4145660    -2.1552715     0.3957693
25
445_C10H11N3O_12-6-7-8 (-60,) energy =    -627.1264868
C           5.9847359     0.5043115    -0.5665048
H           6.8399611     1.1162379    -0.8367873
C           5.6880124     0.2483667     0.7702023
H           6.3106105     0.6479782     1.5677652
N           4.6274845    -0.4688094     1.1566066
C           3.8351525    -0.9872273     0.2202523
C           4.0895423    -0.8582047    -1.1630537
O           3.3277926    -1.5472676    -2.0561675
C           2.6478825    -0.7862750    -3.0544202
H           2.1650626    -1.5149311    -3.7081014
H           3.3382325    -0.1740135    -3.6480859
H           1.8877993    -0.1501909    -2.5878743
C           5.1702696    -0.0619646    -1.5458246
H           5.3906482     0.0718954    -2.6005926
C           1.2438103    -2.8978490     1.7966788
H           0.7913300    -3.5867463     2.4959740
C           2.5839040    -2.5774993     1.7137399
C           3.7460239    -3.0713637     2.5155047
H           3.4119110    -3.8700247     3.1837761
H           4.1914403    -2.2709054     3.1131984
H           4.5383489    -3.4747049     1.8738626
N           2.6872144    -1.6852063     0.6708012
N           1.4775293    -1.4090835     0.0950913
C           0.6134045    -2.1442639     0.7794828
H          -0.4375027    -2.1064774     0.5213682
25
445_C10H11N3O_12-6-7-8 (-45,) energy =    -627.1261114
C           5.9271439     0.5380611    -0.5461892
H           6.7818713     1.1462322    -0.8265744
C           5.6510706     0.2748821     0.7922304
H           6.2865113     0.6660306     1.5836196
N           4.5927377    -0.4423130     1.1876940
C           3.7833802    -0.9495155     0.2622058
C           4.0073175    -0.7980376    -1.1260819
O           3.2178475    -1.4825684    -1.9926088
C           2.7827336    -0.8077911    -3.1697911
H           2.0220319    -1.4506056    -3.6157585
H           3.5985048    -0.6691202    -3.8914643
H           2.3408884     0.1636488    -2.9207608
C           5.0939884    -0.0139970    -1.5188991
H           5.3000099     0.1375227    -2.5736242
C           1.2577342    -2.9217295     1.8677015
H           0.8357751    -3.6391916     2.5573400
C           2.5935817    -2.6003585     1.7359326
C           3.7912063    -3.1261839     2.4614520
H           3.4882079    -3.9511105     3.1124188
H           4.2652311    -2.3502174     3.0696487
H           4.5519423    -3.5035189     1.7676932
N           2.6513377    -1.6648463     0.7280639
N           1.4179602    -1.3620945     0.2208819
C           0.5840678    -2.1245904     0.9129835
H          -0.4775131    -2.0744036     0.7053245
25
445_C10H11N3O_12-6-7-8 (-30,) energy =    -627.1269808
C           5.8656223     0.5578314    -0.5462160
H           6.7210627     1.1603035    -0.8365980
C           5.6157303     0.2779611     0.7926327
H           6.2706289     0.6499138     1.5771865
N           4.5582620    -0.4371417     1.1971083
C           3.7249191    -0.9222876     0.2835398
C           3.9145623    -0.7416237    -1.1085862
O           3.0865787    -1.3949768    -1.9576002
C           2.8792916    -0.8427118    -3.2521655
H           2.0272185    -1.3804992    -3.6707108
H           3.7507565    -0.9909393    -3.9040356
H           2.6454138     0.2268765    -3.1916806
C           5.0052317     0.0325529    -1.5112412
H           5.1922913     0.2056726    -2.5656371
C           1.2563336    -2.9407914     1.9191513
H           0.8596916    -3.6787475     2.6022003
C           2.5865382    -2.6161434     1.7461483
C           3.8101915    -3.1644674     2.4088674
H           3.5306969    -4.0076579     3.0468416
H           4.3093876    -2.4072770     3.0206071
H           4.5425247    -3.5225793     1.6754027
N           2.6072226    -1.6510792     0.7645641
N           1.3558757    -1.3315570     0.3153694
C           0.5481400    -2.1140981     1.0158099
H          -0.5205261    -2.0568659     0.8506114
25
445_C10H11N3O_12-6-7-8 (-15,) energy =    -627.1278356
C           5.8239221     0.5804132    -0.5250473
H           6.6815709     1.1792312    -0.8165031
C           5.5929215     0.2735059     0.8102578
H           6.2655144     0.6176604     1.5923683
N           4.5321239    -0.4381619     1.2144210
C           3.6788332    -0.8920280     0.3049929
C           3.8468486    -0.6796284    -1.0869885
O           2.9781581    -1.2849321    -1.9281307
C           2.9705355    -0.8864337    -3.2917804
H           2.1222161    -1.4017854    -3.7441340
H           3.8925025    -1.1864496    -3.8079678
H           2.8346644     0.1979714    -3.3885169
C           4.9403106     0.0912478    -1.4891478
H           5.1144436     0.2929969    -2.5400568
C           1.2300836    -2.9419516     1.9314029
H           0.8434935    -3.6993630     2.5987481
C           2.5587305    -2.6237684     1.7359115
C           3.7930550    -3.2044580     2.3494162
H           3.5223657    -4.0704385     2.9600916
H           4.3102539    -2.4745834     2.9792519
H           4.5071169    -3.5374434     1.5866979
N           2.5645667    -1.6256796     0.7876388
N           1.3057048    -1.2795603     0.3818701
C           0.5076399    -2.0782954     1.0751250
H          -0.5641666    -2.0057141     0.9387786
25
445_C10H11N3O_12-6-7-8 (0,) energy =    -627.1280667
C           5.8034227     0.6073779    -0.5181657
H           6.6591211     1.2067230    -0.8142004
C           5.6038949     0.2634976     0.8128207
H           6.3012652     0.5748115     1.5869006
N           4.5448089    -0.4476822     1.2229173
C           3.6636772    -0.8656371     0.3234873
C           3.7993299    -0.6160681    -1.0664877
O           2.8847408    -1.1641508    -1.8977900
C           3.0259241    -0.9465143    -3.2940598
H           2.1995033    -1.4848871    -3.7597839
H           3.9786704    -1.3425517    -3.6703066
H           2.9507035     0.1196650    -3.5436300
C           4.8886081     0.1585775    -1.4731850
H           5.0369268     0.3951500    -2.5204780
C           1.2396518    -2.9408829     1.9541252
H           0.8639820    -3.7140441     2.6095669
C           2.5654177    -2.6273309     1.7336513
C           3.8099104    -3.2349606     2.2986374
H           3.5469991    -4.1143067     2.8934228
H           4.3505825    -2.5266522     2.9333046
H           4.5004786    -3.5541570     1.5088161
N           2.5550569    -1.6025997     0.8138847
N           1.2892217    -1.2353364     0.4511907
C           0.5026398    -2.0475710     1.1417336
H          -0.5716403    -1.9629600     1.0351662
25
445_C10H11N3O_12-6-7-8 (15,) energy =    -627.1274505
C           5.7877813     0.6372480    -0.5101394
H           6.6434020     1.2387994    -0.8017988
C           5.6111804     0.2489045     0.8122579
H           6.3288577     0.5230623     1.5818910
N           4.5517836    -0.4625203     1.2196729
C           3.6474530    -0.8401594     0.3246118
C           3.7606855    -0.5477974    -1.0584895
O           2.8096854    -1.0302924    -1.8912289
C           3.0706808    -1.0134683    -3.2883635
H           2.2585498    -1.5803063    -3.7458573
H           4.0316446    -1.4897716    -3.5226384
H           3.0640109     0.0085557    -3.6891423
C           4.8473417     0.2334419    -1.4597557
H           4.9723541     0.5076271    -2.5011850
C           1.2302243    -2.9348292     1.9394644
H           0.8579292    -3.7214890     2.5806280
C           2.5552251    -2.6271794     1.7069378
C           3.8021676    -3.2605600     2.2373156
H           3.5398333    -4.1553820     2.8088638
H           4.3564881    -2.5757583     2.8858121
H           4.4803758    -3.5609657     1.4296403
N           2.5397958    -1.5786670     0.8139384
N           1.2719523    -1.1915874     0.4804579
C           0.4887519    -2.0146428     1.1617777
H          -0.5861992    -1.9180899     1.0739634
25
445_C10H11N3O_12-6-7-8 (30,) energy =    -627.1260739
C           5.7755557     0.6745328    -0.5002838
H           6.6313809     1.2791546    -0.7848671
C           5.6184384     0.2379406     0.8105606
H           6.3546244     0.4744684     1.5753555
N           4.5593366    -0.4752565     1.2124973
C           3.6334266    -0.8113737     0.3207044
C           3.7263345    -0.4717844    -1.0515211
O           2.7471288    -0.8874664    -1.8917771
C           3.0900920    -1.0937758    -3.2583507
H           2.2631452    -1.6613744    -3.6884529
H           4.0217701    -1.6655561    -3.3534577
H           3.1890754    -0.1452297    -3.8021602
C           4.8114534     0.3165693    -1.4430853
H           4.9124817     0.6289521    -2.4769377
C           1.2207685    -2.9287687     1.9122604
H           0.8501580    -3.7288739     2.5375970
C           2.5450569    -2.6237415     1.6729780
C           3.7924618    -3.2798579     2.1739627
H           3.5289170    -4.1893433     2.7213545
H           4.3567583    -2.6178995     2.8373178
H           4.4621781    -3.5607376     1.3523241
N           2.5267294    -1.5526295     0.8065043
N           1.2578482    -1.1495374     0.4971697
C           0.4769108    -1.9844292     1.1663467
H          -0.5982379    -1.8785936     1.0932163
25
445_C10H11N3O_12-6-7-8 (45,) energy =    -627.1243338
C           5.7559452     0.7321238    -0.4802233
H           6.6127193     1.3410330    -0.7525069
C           5.6092011     0.2488063     0.8165078
H           6.3570099     0.4523344     1.5797223
N           4.5500890    -0.4690729     1.2068885
C           3.6103696    -0.7670030     0.3134337
C           3.6902913    -0.3781908    -1.0446117
O           2.6966486    -0.7365293    -1.9004808
C           3.0857284    -1.1902454    -3.1954436
H           2.1985267    -1.6597414    -3.6243899
H           3.8981077    -1.9245213    -3.1308075
H           3.3966092    -0.3627156    -3.8463726
C           4.7766812     0.4153258    -1.4206714
H           4.8601723     0.7646112    -2.4448657
C           1.1991449    -2.9157577     1.8640341
H           0.8294284    -3.7318276     2.4689325
C           2.5231063    -2.6111214     1.6229788
C           3.7704958    -3.2888257     2.0946072
H           3.5061372    -4.2168666     2.6095289
H           4.3396387    -2.6534376     2.7794808
H           4.4363884    -3.5415339     1.2608496
N           2.5036581    -1.5151103     0.7877792
N           1.2344772    -1.0964958     0.5010553
C           0.4542760    -1.9460698     1.1522109
H          -0.6208002    -1.8321029     1.0914554
25
445_C10H11N3O_12-6-7-8 (60,) energy =    -627.1231977
C           5.7521600     0.7904446    -0.4595101
H           6.6082613     1.4058072    -0.7188460
C           5.6196536     0.2583313     0.8207708
H           6.3787163     0.4308143     1.5807751
N           4.5642809    -0.4688320     1.2003838
C           3.6094632    -0.7299916     0.3084960
C           3.6705251    -0.2850323    -1.0311194
O           2.6733303    -0.5974063    -1.9081059
C           3.0659311    -1.3076876    -3.0818768
H           2.1437204    -1.5124979    -3.6285680
H           3.5569221    -2.2545008    -2.8231154
H           3.7365547    -0.7180691    -3.7203037
C           4.7580116     0.5117497    -1.3950985
H           4.8188285     0.8999533    -2.4073822
C           1.2145346    -2.9258030     1.8183978
H           0.8509734    -3.7590081     2.4033451
C           2.5359229    -2.6109141     1.5774886
C           3.7868002    -3.3004276     2.0221943
H           3.5255890    -4.2416539     2.5143106
H           4.3610895    -2.6833303     2.7191909
H           4.4468662    -3.5313247     1.1775149
N           2.5080727    -1.4920466     0.7722202
N           1.2354057    -1.0698388     0.5054151
C           0.4622118    -1.9389989     1.1383728
H          -0.6135199    -1.8261545     1.0884067
25
445_C10H11N3O_12-6-7-8 (75,) energy =    -627.1230036
C           5.7651085     0.8464181    -0.4496241
H           6.6261871     1.4608601    -0.6939966
C           5.6342300     0.2733199     0.8132479
H           6.3981215     0.4173767     1.5744725
N           4.5777060    -0.4606517     1.1763923
C           3.6138849    -0.6849817     0.2829554
C           3.6674310    -0.1876586    -1.0374303
O           2.6776507    -0.4515641    -1.9426518
C           3.0162401    -1.4038619    -2.9505050
H           2.1440108    -1.4772587    -3.6026987
H           3.2261128    -2.3873298    -2.5100635
H           3.8854948    -1.0819399    -3.5397725
C           4.7620457     0.6043271    -1.3859664
H           4.8107541     1.0183917    -2.3890373
C           1.2268686    -2.9256680     1.7397121
H           0.8661443    -3.7729999     2.3058272
C           2.5469821    -2.5981990     1.5098821
C           3.7988658    -3.2920856     1.9451062
H           3.5390575    -4.2469959     2.4109789
H           4.3652004    -2.6901931     2.6614794
H           4.4661049    -3.4976224     1.0996034
N           2.5151229    -1.4622749     0.7276457
N           1.2401754    -1.0422227     0.4656159
C           0.4708995    -1.9291238     1.0779992
H          -0.6053143    -1.8213971     1.0273738
25
445_C10H11N3O_12-6-7-8 (90,) energy =    -627.1234631
C           5.8010441     0.8809624    -0.4491289
H           6.6714051     1.4875707    -0.6797043
C           5.6623469     0.2768258     0.7976132
H           6.4257558     0.3948246     1.5638111
N           4.6002636    -0.4602439     1.1397383
C           3.6330485    -0.6494671     0.2424195
C           3.6860865    -0.1053932    -1.0605784
O           2.7047001    -0.3180681    -1.9887342
C           2.8952204    -1.4705338    -2.8093155
H           2.0566741    -1.4877300    -3.5079529
H           2.8876305    -2.3910452    -2.2117444
H           3.8388132    -1.4099477    -3.3688399
C           4.7944628     0.6731644    -1.3908434
H           4.8442953     1.1052050    -2.3860958
C           1.2516865    -2.9372538     1.6360796
H           0.8937248    -3.7939461     2.1896571
C           2.5709638    -2.5848663     1.4415337
C           3.8213582    -3.2615479     1.9075689
H           3.5634640    -4.2280675     2.3501832
H           4.3523567    -2.6605969     2.6510425
H           4.5204015    -3.4411808     1.0824241
N           2.5373863    -1.4447335     0.6635557
N           1.2608381    -1.0488700     0.3704307
C           0.4933469    -1.9527474     0.9595139
H          -0.5831167    -1.8651727     0.8820095
25
445_C10H11N3O_12-6-7-8 (105,) energy =    -627.1245596
C           5.8354093     0.8959106    -0.4243219
H           6.7081609     1.5064768    -0.6343099
C           5.6895535     0.2560749     0.8030885
H           6.4466185     0.3525829     1.5785145
N           4.6263743    -0.4923838     1.1142254
C           3.6624213    -0.6562521     0.2087589
C           3.7207172    -0.0711279    -1.0786806
O           2.7581229    -0.2272371    -2.0346534
C           2.7382393    -1.4950505    -2.6922363
H           1.9657293    -1.4225306    -3.4599906
H           2.4804225    -2.3039159    -1.9993091
H           3.7070864    -1.7067589    -3.1642312
C           4.8345660     0.7133295    -1.3767471
H           4.8893612     1.1686595    -2.3610285
C           1.2813656    -2.9731218     1.5599891
H           0.9214909    -3.8263885     2.1175775
C           2.5989327    -2.5921049     1.4119046
C           3.8395071    -3.2361912     1.9456333
H           3.5804963    -4.2072016     2.3780278
H           4.3163684    -2.6206067     2.7131956
H           4.5852807    -3.4001100     1.1596977
N           2.5705570    -1.4679800     0.6091111
N           1.2974732    -1.1130388     0.2538333
C           0.5283836    -2.0237597     0.8305707
H          -0.5455979    -1.9658239     0.7054544
25
445_C10H11N3O_12-6-7-8 (120,) energy =    -627.1255041
C           5.8312122     0.9738998    -0.4100917
H           6.6867931     1.6155578    -0.5970454
C           5.6810422     0.3204185     0.8104182
H           6.4175246     0.4343393     1.6029643
N           4.6327790    -0.4583628     1.0924768
C           3.6945091    -0.6457135     0.1644440
C           3.7720373    -0.0705720    -1.1265606
O           2.8639796    -0.2423288    -2.1286076
C           2.6543761    -1.5743005    -2.6074872
H           2.0872097    -1.4664099    -3.5342772
H           2.0744063    -2.1704022    -1.8980648
H           3.6120991    -2.0654692    -2.8222277
C           4.8636727     0.7600912    -1.3881416
H           4.9307092     1.2155091    -2.3713376
C           1.2979864    -2.9538262     1.5047944
H           0.9311695    -3.8072229     2.0575860
C           2.6199603    -2.5912224     1.3439185
C           3.8607074    -3.2529825     1.8543327
H           3.5997164    -4.2252055     2.2824550
H           4.3539176    -2.6475400     2.6197813
H           4.5929548    -3.4169758     1.0556056
N           2.5996762    -1.4596930     0.5549060
N           1.3291854    -1.0795176     0.2190961
C           0.5514888    -1.9850657     0.7951590
H          -0.5227582    -1.9094212     0.6826443
25
445_C10H11N3O_12-6-7-8 (135,) energy =    -627.1260162
C           5.8158072     1.0386976    -0.3398420
H           6.6509523     1.7138837    -0.4995164
C           5.6473753     0.3862630     0.8808069
H           6.3504585     0.5317180     1.6980055
N           4.6166765    -0.4240849     1.1290598
C           3.7209024    -0.6519070     0.1673736
C           3.8351625    -0.1011943    -1.1304061
O           3.0073792    -0.3205227    -2.1852078
C           2.6011559    -1.6593607    -2.4919796
H           2.3280881    -1.6450820    -3.5496115
H           1.7397039    -1.9568974    -1.8911675
H           3.4289493    -2.3631727    -2.3421021
C           4.9005157     0.7786438    -1.3529827
H           4.9920119     1.2247666    -2.3383913
C           1.3092264    -2.9509803     1.4971038
H           0.9375500    -3.8091552     2.0391400
C           2.6347300    -2.6207195     1.2947163
C           3.8803841    -3.3195854     1.7383091
H           3.6192631    -4.2923049     2.1646525
H           4.4206365    -2.7353198     2.4887278
H           4.5710253    -3.4877874     0.9036190
N           2.6194447    -1.4694768     0.5397840
N           1.3499453    -1.0392764     0.2669694
C           0.5663751    -1.9400749     0.8457558
H          -0.5085536    -1.8306393     0.7755426
25
445_C10H11N3O_12-6-7-8 (150,) energy =    -627.1259102
C           5.8095322     1.0755262    -0.2699765
H           6.6266225     1.7774901    -0.4061112
C           5.6029326     0.4488457     0.9601516
H           6.2595371     0.6372357     1.8066492
N           4.5852039    -0.3834176     1.1771444
C           3.7453827    -0.6678073     0.1788760
C           3.9156708    -0.1610391    -1.1299273
O           3.1837288    -0.4342740    -2.2374971
C           2.5610677    -1.7103470    -2.4191150
H           2.3930349    -1.7943475    -3.4951424
H           1.6122397    -1.7640870    -1.8837111
H           3.2231415    -2.5208967    -2.0923457
C           4.9583516     0.7582767    -1.3186234
H           5.0855572     1.1816667    -2.3100764
C           1.3247472    -2.9620409     1.5011270
H           0.9522065    -3.8240167     2.0364696
C           2.6504711    -2.6503603     1.2687905
C           3.9006242    -3.3683771     1.6660042
H           3.6435754    -4.3353428     2.1071753
H           4.4775654    -2.7884537     2.3926170
H           4.5552335    -3.5507167     0.8051375
N           2.6368373    -1.4868188     0.5370392
N           1.3690090    -1.0245667     0.3121619
C           0.5836573    -1.9242152     0.8925142
H          -0.4905958    -1.7944825     0.8529760
25
445_C10H11N3O_12-6-7-8 (165,) energy =    -627.1252542
C           5.8088607     1.0889185    -0.2288481
H           6.6190345     1.8009700    -0.3538844
C           5.5379751     0.5238204     1.0197895
H           6.1385851     0.7683329     1.8930504
N           4.5233575    -0.3148812     1.2160875
C           3.7493181    -0.6705502     0.1862939
C           3.9907967    -0.2304242    -1.1350786
O           3.3630593    -0.5735934    -2.2842034
C           2.5073291    -1.7149917    -2.3917317
H           2.3623215    -1.8531350    -3.4651874
H           1.5520651    -1.5386752    -1.8960317
H           2.9842503    -2.6084051    -1.9728659
C           5.0281205     0.7025569    -1.3060209
H           5.2065910     1.0785574    -2.3085757
C           1.3411050    -2.9836306     1.4989497
H           0.9762711    -3.8530536     2.0275328
C           2.6629987    -2.6688398     1.2477191
C           3.9235548    -3.3848911     1.6140338
H           3.6806665    -4.3447401     2.0778478
H           4.5233880    -2.7954292     2.3145221
H           4.5499213    -3.5813882     0.7351336
N           2.6388547    -1.4957580     0.5340544
N           1.3686245    -1.0243401     0.3449132
C           0.5918681    -1.9339100     0.9224515
H          -0.4826841    -1.8021041     0.9038720
25
445_C10H11N3O_12-6-7-8 (180,) energy =    -627.1245086
C           5.8117892     1.0823543    -0.2208557
H           6.6290199     1.7862642    -0.3464730
C           5.4551791     0.6181405     1.0482776
H           5.9940339     0.9350593     1.9383785
N           4.4348179    -0.2137628     1.2392780
C           3.7328674    -0.6558186     0.1907731
C           4.0529403    -0.3069742    -1.1407147
O           3.5158607    -0.7402990    -2.3048546
C           2.4369481    -1.6769251    -2.3851941
H           2.2910066    -1.8352703    -3.4555565
H           1.5316832    -1.2763418    -1.9270960
H           2.6982145    -2.6285065    -1.9099190
C           5.1037200     0.6125892    -1.3137644
H           5.3464280     0.9138393    -2.3280050
C           1.3581074    -3.0153675     1.4819320
H           1.0097111    -3.8995770     1.9969037
C           2.6729701    -2.6802772     1.2190252
C           3.9501041    -3.3803994     1.5576034
H           3.7309577    -4.3450591     2.0230568
H           4.5538443    -2.7855201     2.2509002
H           4.5629603    -3.5649030     0.6666624
N           2.6268566    -1.4931851     0.5317140
N           1.3500894    -1.0291790     0.3745993
C           0.5904203    -1.9603450     0.9405682
H          -0.4856055    -1.8395571     0.9398817
