21
065_C6H10N4O_0-2-3-8 (-165,) energy =    -528.8935089
N           5.3976473    -0.3487291    -1.1486178
H           6.3376947    -0.5736890    -1.4494906
C           4.4083133    -0.9614087    -1.9071892
N           3.0899679    -0.5541310    -1.6203888
C           2.7765024     0.8722062    -1.7948400
H           2.6319466     1.1205010    -2.8570349
H           3.5787881     1.4938664    -1.3968788
H           1.8529432     1.1107638    -1.2572027
C           2.0680109    -1.4465877    -2.1714848
H           1.1105460    -1.2109555    -1.6960991
H           2.3339475    -2.4822374    -1.9572826
H           1.9616749    -1.3386335    -3.2599661
O           4.6856197    -1.8232734    -2.7265644
C           5.9079059     1.0672173     1.9993726
H           6.5569018     1.5450854     2.7202474
N           6.3709531     0.7323445     0.7403961
C           5.3367084     0.1833598     0.1407526
N           4.2292570     0.1496503     0.9348065
H           3.3454788    -0.2569922     0.6603115
C           4.5918827     0.7234185     2.1471958
H           3.8880720     0.8327904     2.9578251
21
065_C6H10N4O_0-2-3-8 (-150,) energy =    -528.8910292
N           5.4211446    -0.4040019    -1.1075888
H           6.3665719    -0.5689131    -1.4306681
C           4.4361165    -0.8396548    -1.9702464
N           3.1052291    -0.4950218    -1.5857388
C           2.7378113     0.8949543    -1.8977907
H           2.6313184     1.0573899    -2.9814001
H           3.4976485     1.5791905    -1.5125019
H           1.7837462     1.1324446    -1.4160545
C           2.1164498    -1.4776308    -2.0409372
H           1.1592637    -1.2491042    -1.5613100
H           2.4336461    -2.4784866    -1.7414955
H           1.9811741    -1.4712382    -3.1313326
O           4.7041009    -1.5257106    -2.9427535
C           5.9342666     0.9452552     2.0647834
H           6.5962274     1.3577524     2.8136778
N           6.4124540     0.5714682     0.8230405
C           5.3533908     0.1251944     0.1817509
N           4.2189694     0.1926134     0.9305863
H           3.3178602    -0.1306030     0.6034800
C           4.5867489     0.7233798     2.1596929
H           3.8660051     0.8945168     2.9443455
21
065_C6H10N4O_0-2-3-8 (-135,) energy =    -528.8885183
N           5.3795578    -0.3932252    -1.1185105
H           6.3227678    -0.5426199    -1.4578794
C           4.3890625    -0.6883306    -2.0213526
N           3.0458561    -0.4059436    -1.5569614
C           2.5724822     0.8689347    -2.1271217
H           2.5073382     0.8335592    -3.2249756
H           3.2541003     1.6750618    -1.8390574
H           1.5813152     1.0931085    -1.7204472
C           2.1431629    -1.5239987    -1.8749095
H           1.1568410    -1.3001669    -1.4566392
H           2.5199209    -2.4382157    -1.4082557
H           2.0476905    -1.6955080    -2.9555459
O           4.6372777    -1.1755452    -3.1107185
C           5.9495058     0.7360360     2.1275742
H           6.6330207     1.0297396     2.9122397
N           6.4183768     0.3470009     0.8872496
C           5.3314333     0.0677923     0.1997590
N           4.1910190     0.2551458     0.9139646
H           3.2730894     0.0661877     0.5283255
C           4.5812958     0.6890048     2.1725380
H           3.8626055     0.9178777     2.9442810
21
065_C6H10N4O_0-2-3-8 (-120,) energy =    -528.8876078
N           5.3747677    -0.3508085    -1.1176052
H           6.3147983    -0.5277740    -1.4534035
C           4.3872731    -0.5220640    -2.0512834
N           3.0392643    -0.2624089    -1.5633311
C           2.4510941     0.8520896    -2.3322823
H           2.3848005     0.6268999    -3.4058321
H           3.0611427     1.7504238    -2.1967229
H           1.4481401     1.0532934    -1.9434699
C           2.2263589    -1.4863668    -1.7056976
H           1.2242782    -1.2867884    -1.3137733
H           2.6743944    -2.2918840    -1.1159555
H           2.1477911    -1.8140653    -2.7515410
O           4.6319544    -0.8654975    -3.1946662
C           5.9548176     0.5264628     2.2036222
H           6.6393517     0.6959176     3.0232726
N           6.4186060     0.1397343     0.9607671
C           5.3314145     0.0292852     0.2272598
N           4.1967948     0.3198941     0.9140562
H           3.2805635     0.2770516     0.4815332
C           4.5897506     0.6433770     2.2040741
H           3.8757376     0.9177465     2.9652678
21
065_C6H10N4O_0-2-3-8 (-105,) energy =    -528.8882735
N           5.3611850    -0.3046024    -1.1379600
H           6.2964295    -0.5133522    -1.4681952
C           4.3840500    -0.3646925    -2.0978980
N           3.0377818    -0.1273291    -1.6032250
C           2.3358353     0.8121749    -2.4982688
H           2.2382710     0.4229021    -3.5201396
H           2.8826724     1.7585808    -2.5345864
H           1.3401786     1.0014935    -2.0855054
C           2.3156422    -1.4158435    -1.5417591
H           1.3129913    -1.2396560    -1.1401363
H           2.8413948    -2.1006293    -0.8690963
H           2.2281555    -1.8862960    -2.5319087
O           4.6433853    -0.5805988    -3.2688871
C           5.9149839     0.3286609     2.2430998
H           6.5842780     0.3794024     3.0908109
N           6.3752103    -0.0540636     0.9976222
C           5.3101406    -0.0036177     0.2261608
N           4.1915724     0.3828162     0.8927721
H           3.2939057     0.4791867     0.4316887
C           4.5735188     0.6038989     2.2077473
H           3.8679747     0.9209568     2.9601961
21
065_C6H10N4O_0-2-3-8 (-90,) energy =    -528.8901158
N           5.3639856    -0.2823499    -1.1567706
H           6.2979255    -0.4975307    -1.4848858
C           4.4050283    -0.2270733    -2.1408947
N           3.0610259    -0.0279966    -1.6551489
C           2.2686842     0.7497794    -2.6237454
H           2.1490460     0.2297700    -3.5827970
H           2.7578437     1.7091089    -2.8089267
H           1.2830732     0.9358750    -2.1863415
C           2.4168040    -1.3339118    -1.3945406
H           1.4218499    -1.1607019    -0.9731823
H           3.0050216    -1.9015838    -0.6679359
H           2.3138061    -1.9290025    -2.3141031
O           4.6958845    -0.3003620    -3.3223644
C           5.8662400     0.1551715     2.2634724
H           6.5095418     0.1069774     3.1312295
N           6.3257388    -0.2274629     1.0175521
C           5.2967476    -0.0445277     0.2177819
N           4.2001599     0.4276265     0.8684358
H           3.3323845     0.6446534     0.3932446
C           4.5606486     0.5637442     2.2015705
H           3.8646882     0.9183836     2.9461080
21
065_C6H10N4O_0-2-3-8 (-75,) energy =    -528.8922806
N           5.3541851    -0.3027970    -1.1592841
H           6.2929280    -0.4844014    -1.4922650
C           4.4189955    -0.1169670    -2.1584081
N           3.0724152     0.0101922    -1.7007161
C           2.2201835     0.6709801    -2.7003239
H           2.0843032     0.0619756    -3.6037539
H           2.6691542     1.6217556    -2.9932458
H           1.2441462     0.8617514    -2.2437769
C           2.4899641    -1.2817509    -1.2816738
H           1.5128030    -1.1002873    -0.8236188
H           3.1320507    -1.7666844    -0.5432366
H           2.3551346    -1.9602136    -2.1372764
O           4.7501972    -0.0248048    -3.3286771
C           5.8164900     0.0354664     2.2796017
H           6.4344038    -0.0778623     3.1596726
N           6.2683152    -0.3705118     1.0380108
C           5.2777826    -0.0905775     0.2182056
N           4.2104943     0.4657834     0.8544095
H           3.3707970     0.7664348     0.3763114
C           4.5518990     0.5530743     2.1974135
H           3.8705641     0.9523085     2.9328247
21
065_C6H10N4O_0-2-3-8 (-60,) energy =    -528.8937113
N           5.3313283    -0.3540831    -1.1612599
H           6.2755308    -0.4776945    -1.5050562
C           4.4181193    -0.0291891    -2.1557330
N           3.0673267     0.0073743    -1.7442017
C           2.1807016     0.5989385    -2.7522248
H           2.0477675    -0.0561765    -3.6240412
H           2.5988117     1.5448216    -3.0982205
H           1.2059242     0.7804699    -2.2891981
C           2.5236435    -1.2518485    -1.2027992
H           1.5748016    -1.0459377    -0.6974588
H           3.2114324    -1.6918057    -0.4805083
H           2.3382270    -1.9817064    -2.0048553
O           4.7864134     0.2339796    -3.2893958
C           5.7922517    -0.0450633     2.2841549
H           6.3953030    -0.1974345     3.1686408
N           6.2260947    -0.4806035     1.0456827
C           5.2631996    -0.1389108     0.2172266
N           4.2280160     0.4853476     0.8469640
H           3.4097910     0.8449546     0.3739822
C           4.5637338     0.5504908     2.1935615
H           3.9030499     0.9917944     2.9237517
21
065_C6H10N4O_0-2-3-8 (-45,) energy =    -528.8938558
N           5.2830456    -0.3821867    -1.1779102
H           6.2321047    -0.4364397    -1.5278536
C           4.3856446     0.0643424    -2.1521114
N           3.0323662    -0.0039830    -1.8088968
C           2.1262851     0.5645668    -2.8072655
H           1.9879783    -0.1080747    -3.6653586
H           2.5323745     1.5066621    -3.1750303
H           1.1545123     0.7419393    -2.3359465
C           2.5061483    -1.2158015    -1.1661871
H           1.6164499    -0.9652175    -0.5786788
H           3.2467029    -1.6606786    -0.5041954
H           2.2200038    -1.9628292    -1.9213123
O           4.7846875     0.4874263    -3.2266639
C           5.7473016    -0.1019144     2.2738787
H           6.3391837    -0.2852542     3.1600502
N           6.1664307    -0.5527240     1.0354895
C           5.2255767    -0.1651266     0.2030029
N           4.2166591     0.5049499     0.8316917
H           3.4177192     0.9133755     0.3670372
C           4.5480850     0.5491812     2.1810128
H           3.9042361     1.0168290     2.9098493
21
065_C6H10N4O_0-2-3-8 (-30,) energy =    -528.8928412
N           5.2791871    -0.3705330    -1.2099822
H           6.2291832    -0.3536589    -1.5626383
C           4.3771153     0.1295044    -2.1646549
N           3.0322490    -0.0644851    -1.8935075
C           2.0915106     0.4931360    -2.8599889
H           1.8989796    -0.2068893    -3.6853171
H           2.5031617     1.4110528    -3.2778258
H           1.1437517     0.7072825    -2.3546047
C           2.5300145    -1.2065091    -1.1289795
H           1.7916550    -0.8856381    -0.3845500
H           3.3433255    -1.7203532    -0.6205505
H           2.0422456    -1.9220642    -1.8057781
O           4.7825453     0.6770089    -3.1806944
C           5.7137994    -0.1516268     2.2547193
H           6.2845701    -0.3719317     3.1463354
N           6.1279004    -0.6064528     1.0159910
C           5.2187372    -0.1671188     0.1747698
N           4.2324206     0.5413156     0.8005708
H           3.4597683     1.0012493     0.3412253
C           4.5461142     0.5528817     2.1552057
H           3.9127957     1.0381347     2.8817969
21
065_C6H10N4O_0-2-3-8 (-15,) energy =    -528.8912465
N           5.2884363    -0.2509073    -1.2746190
H           6.2304418    -0.1271712    -1.6284359
C           4.3480118     0.2385275    -2.2039367
N           3.0358605    -0.1229303    -1.9922811
C           2.0277979     0.4127439    -2.8979242
H           1.7198892    -0.3423340    -3.6342722
H           2.4459108     1.2669535    -3.4284406
H           1.1424240     0.7220514    -2.3293936
C           2.5923699    -1.1900771    -1.1030269
H           2.0158364    -0.8026660    -0.2531390
H           3.4437510    -1.7541852    -0.7242531
H           1.9493792    -1.8794201    -1.6648441
O           4.7169452     0.8958070    -3.1700549
C           5.5998981    -0.2738418     2.2149101
H           6.0956967    -0.6134593     3.1138997
N           5.9997981    -0.7221561     0.9703425
C           5.2001177    -0.1206680     0.1185520
N           4.2940836     0.6896270     0.7487529
H           3.6086345     1.2774422     0.2973459
C           4.5420756     0.5876733     2.1109306
H           3.9459032     1.1143763     2.8402951
21
065_C6H10N4O_0-2-3-8 (0,) energy =    -528.8918047
N           5.1661393    -0.4855071    -1.0272749
H           6.1042151    -0.8725242    -0.9580026
C           4.2937153    -1.5995622    -1.2062423
N           2.9930831    -1.3242945    -1.5222261
C           2.0431528    -2.4277161    -1.5347332
H           1.5174063    -2.4632317    -2.4972354
H           1.2989534    -2.3070546    -0.7358126
H           2.5889304    -3.3579104    -1.3867482
C           2.4328750     0.0067757    -1.6891224
H           1.6481248    -0.0419587    -2.4525215
H           3.2000743     0.7000031    -2.0379147
H           2.0042733     0.3926968    -0.7566113
O           4.7662549    -2.7303075    -1.1704649
C           4.2083053     1.7260181     1.5440246
H           3.6271327     1.9771701     2.4206689
N           4.0799558     0.4924965     0.9343778
C           4.9171180     0.5217705    -0.0796942
N           5.5868566     1.7138674    -0.1514790
H           6.2350053     1.9842448    -0.8767806
C           5.1414181     2.4955700     0.9025610
H           5.5331902     3.4837697     1.0891919
21
065_C6H10N4O_0-2-3-8 (15,) energy =    -528.8917991
N           5.1406643    -0.4737759    -1.0157754
H           6.0889387    -0.8380387    -0.9891886
C           4.2815206    -1.5832700    -1.2439107
N           2.9548945    -1.3114553    -1.4205489
C           2.0249889    -2.4285936    -1.4684304
H           1.6194532    -2.5615520    -2.4811843
H           1.1897251    -2.2483991    -0.7802711
H           2.5510961    -3.3363797    -1.1773967
C           2.4017450     0.0037686    -1.7005821
H           1.6604041    -0.0895104    -2.5035993
H           3.1858778     0.6808154    -2.0422063
H           1.9200184     0.4391523    -0.8171708
O           4.7692559    -2.7061948    -1.3118482
C           4.1771371     1.7155997     1.5708570
H           3.5902040     1.9618805     2.4450648
N           4.0425365     0.4899719     0.9469128
C           4.8888994     0.5222564    -0.0588102
N           5.5704314     1.7094615    -0.1117805
H           6.2262849     1.9830063    -0.8289136
C           5.1226060     2.4840336     0.9466291
H           5.5212006     3.4667767     1.1471361
21
065_C6H10N4O_0-2-3-8 (30,) energy =    -528.8928412
N           5.1958013    -0.9813319    -0.3745293
H           5.8946594    -1.6533287    -0.0792987
C           4.0392855    -1.6281305    -0.8428154
N           3.1138452    -0.8279371    -1.4932557
C           1.8912608    -1.4873844    -1.9409596
H           2.0169461    -1.9371318    -2.9360481
H           1.0836775    -0.7492052    -1.9901586
H           1.6277710    -2.2771285    -1.2384696
C           3.4866089     0.3660760    -2.2524290
H           3.4068849     0.1623409    -3.3295218
H           4.5125987     0.6576015    -2.0370883
H           2.8213993     1.2048665    -2.0152901
O           3.8945866    -2.8338330    -0.6951265
C           5.9406428     1.8398519     1.5560591
H           6.6602602     2.4740820     2.0552537
N           6.3487054     0.7270171     0.8433999
C           5.2387303     0.2003945     0.3766384
N           4.1327126     0.9150245     0.7404450
H           3.1779272     0.6670757     0.5249588
C           4.5819940     1.9856325     1.5056406
H           3.9032671     2.7213732     1.9087700
21
065_C6H10N4O_0-2-3-8 (45,) energy =    -528.8938558
N           5.2103707    -0.9512011    -0.3670830
H           5.9501183    -1.5996622    -0.1254719
C           4.0855720    -1.6013015    -0.8828212
N           3.0916730    -0.7711451    -1.4088945
C           1.8858250    -1.4749282    -1.8467167
H           2.0346456    -1.9824525    -2.8101321
H           1.0753085    -0.7468789    -1.9513018
H           1.6108937    -2.2250977    -1.1055221
C           3.4672228     0.3450531    -2.2873059
H           3.5559024     0.0057564    -3.3299695
H           4.4180319     0.7791377    -1.9837702
H           2.6974442     1.1229719    -2.2450340
O           3.9988223    -2.8198445    -0.8593112
C           5.9417640     1.8297506     1.6179449
H           6.6562051     2.4406274     2.1523944
N           6.3515462     0.7142363     0.9106636
C           5.2473050     0.2221157     0.3940209
N           4.1457953     0.9589325     0.7195503
H           3.1988849     0.7311679     0.4502850
C           4.5896382     2.0085061     1.5157148
H           3.9129741     2.7551121     1.9019093
21
065_C6H10N4O_0-2-3-8 (60,) energy =    -528.8937113
N           5.2113288    -0.9827188    -0.3235552
H           5.9887938    -1.6032447    -0.1351667
C           4.1386958    -1.6108868    -0.9427599
N           3.0952303    -0.7531027    -1.3557813
C           1.8883400    -1.4801141    -1.7644992
H           2.0251492    -2.0093442    -2.7174463
H           1.0714938    -0.7595160    -1.8695408
H           1.6271562    -2.2146873    -1.0019968
C           3.4655193     0.2913497    -2.3285812
H           3.6136566    -0.1349758    -3.3319072
H           4.3817916     0.7971840    -2.0237804
H           2.6619498     1.0324987    -2.3837353
O           4.1101451    -2.8236752    -1.0785473
C           5.9299920     1.7912489     1.6683433
H           6.6373070     2.3889939     2.2265637
N           6.3401028     0.6634683     0.9815702
C           5.2433040     0.1951253     0.4266296
N           4.1484379     0.9569675     0.7072557
H           3.2118268     0.7424333     0.3922191
C           4.5862875     1.9989642     1.5152269
H           3.9129338     2.7620082     1.8740986
21
065_C6H10N4O_0-2-3-8 (75,) energy =    -528.8922807
N           5.1851061    -1.0107499    -0.2834700
H           5.9923142    -1.6046646    -0.1393462
C           4.1719394    -1.5924477    -1.0199809
N           3.0874781    -0.7196720    -1.3380795
C           1.8680308    -1.4700083    -1.6728209
H           1.9686131    -2.0383769    -2.6068318
H           1.0446908    -0.7560316    -1.7719630
H           1.6373834    -2.1713769    -0.8689334
C           3.4263834     0.2414747    -2.4082733
H           3.5750830    -0.2651246    -3.3735672
H           4.3354825     0.7900890    -2.1527754
H           2.6077589     0.9599356    -2.5143877
O           4.2038210    -2.7739701    -1.3211539
C           5.8957053     1.7451850     1.7298208
H           6.5941541     2.3201234     2.3221004
N           6.2995256     0.5993904     1.0705764
C           5.2153706     0.1694729     0.4612133
N           4.1366383     0.9704181     0.6808340
H           3.2148842     0.7784591     0.3099182
C           4.5691766     1.9991799     1.5069073
H           3.9063125     2.7876538     1.8284101
21
065_C6H10N4O_0-2-3-8 (90,) energy =    -528.8901157
N           5.1756402    -1.0136830    -0.2668778
H           5.9978742    -1.5932024    -0.1473430
C           4.2209139    -1.5338631    -1.1089871
N           3.1022021    -0.6575343    -1.3583406
C           1.8684478    -1.4364984    -1.5642043
H           1.9225743    -2.0831203    -2.4493439
H           1.0371807    -0.7340935    -1.6781079
H           1.6816703    -2.0631816    -0.6888284
C           3.3758399     0.1927645    -2.5376502
H           3.4912870    -0.4051984    -3.4538374
H           4.2881720     0.7737009    -2.3751818
H           2.5428408     0.8892620    -2.6734973
O           4.3140965    -2.6613450    -1.5628174
C           5.8565019     1.6771366     1.8397827
H           6.5350758     2.2109748     2.4907169
N           6.2527377     0.5189147     1.1983791
C           5.1976616     0.1514069     0.5029227
N           4.1465706     1.0012659     0.6502991
H           3.2513891     0.8478334     0.2019474
C           4.5636798     1.9975770     1.5215795
H           3.9163267     2.8126885     1.8061899
21
065_C6H10N4O_0-2-3-8 (105,) energy =    -528.8882736
N           5.1950850    -0.9943337    -0.2720364
H           6.0155480    -1.5765552    -0.1488507
C           4.2954439    -1.4544700    -1.1987427
N           3.1536517    -0.5811053    -1.4156839
C           1.9110919    -1.3764053    -1.4207702
H           1.8978389    -2.1268619    -2.2219653
H           1.0660138    -0.6931749    -1.5495680
H           1.8014721    -1.8874843    -0.4601378
C           3.3228493     0.1169090    -2.7078320
H           3.3692130    -0.5859383    -3.5523605
H           4.2430716     0.7090520    -2.6884706
H           2.4780394     0.7968472    -2.8549129
O           4.4464034    -2.5205553    -1.7694974
C           5.8007037     1.5912757     1.9834095
H           6.4409298     2.0712171     2.7106723
N           6.1973423     0.4321268     1.3442327
C           5.1926565     0.1389775     0.5462712
N           4.1749297     1.0349983     0.6254671
H           3.3265857     0.9389645     0.0788522
C           4.5589181     1.9852984     1.5600245
H           3.9264017     2.8216528     1.8148375
21
065_C6H10N4O_0-2-3-8 (120,) energy =    -528.8876084
N           5.2203135    -0.9683548    -0.2951759
H           6.0255256    -1.5668247    -0.1496043
C           4.3819752    -1.3654902    -1.3030409
N           3.2261822    -0.5022880    -1.5065738
C           1.9928631    -1.2788478    -1.2730504
H           1.9011162    -2.1304819    -1.9615420
H           1.1324486    -0.6153512    -1.4039171
H           1.9872068    -1.6536841    -0.2449528
C           3.2568069     0.0360397    -2.8804869
H           3.2203601    -0.7578802    -3.6393497
H           4.1717832     0.6190352    -3.0232022
H           2.3983403     0.7016380    -3.0135128
O           4.5986520    -2.3636579    -1.9677777
C           5.7042224     1.4854013     2.1305206
H           6.2856181     1.9012506     2.9418134
N           6.1042916     0.3278290     1.4906731
C           5.1784491     0.1230062     0.5778902
N           4.2066877     1.0711879     0.5865794
H           3.4273036     1.0486040    -0.0618147
C           4.5382710     1.9646995     1.5940285
H           3.9254482     2.8244020     1.8172870
21
065_C6H10N4O_0-2-3-8 (135,) energy =    -528.8885177
N           5.2263337    -0.9466935    -0.3505217
H           6.0149652    -1.5610874    -0.1840697
C           4.4536461    -1.2803382    -1.4345016
N           3.2862888    -0.4432931    -1.6241640
C           2.0838492    -1.1301683    -1.1167295
H           1.8757803    -2.0611464    -1.6650731
H           1.2241108    -0.4602296    -1.2168510
H           2.2159883    -1.3659942    -0.0563834
C           3.1484138    -0.0595550    -3.0383436
H           2.9939544    -0.9244127    -3.6974770
H           4.0501528     0.4682016    -3.3605468
H           2.2954805     0.6202301    -3.1291223
O           4.7587973    -2.1917990    -2.1840290
C           5.5455663     1.3575855     2.2432965
H           6.0470548     1.7004303     3.1378018
N           5.9485721     0.2019833     1.6015985
C           5.1306698     0.0949262     0.5760509
N           4.2234399     1.1043798     0.5152358
H           3.5343337     1.1702009    -0.2249530
C           4.4850905     1.9340738     1.5958088
H           3.9004631     2.8205724     1.7876109
21
065_C6H10N4O_0-2-3-8 (150,) energy =    -528.8910293
N           5.2414249    -0.9566100    -0.3634204
H           6.0400564    -1.5573431    -0.1998239
C           4.5667235    -1.2060301    -1.5407862
N           3.3649433    -0.4538157    -1.7151070
C           2.2180001    -0.9973489    -0.9703250
H           1.8741738    -1.9556985    -1.3889045
H           1.3896033    -0.2828014    -1.0131747
H           2.4890903    -1.1477443     0.0774897
C           3.0724082    -0.1884540    -3.1276870
H           2.7910064    -1.0948300    -3.6812226
H           3.9528671     0.2451917    -3.6059325
H           2.2490002     0.5311586    -3.1783781
O           5.0187215    -1.9654172    -2.3816694
C           5.3872862     1.2387443     2.3393991
H           5.8021022     1.5224973     3.2967856
N           5.7871714     0.0750816     1.7099208
C           5.0903591     0.0473709     0.5938328
N           4.2603418     1.1181913     0.4659143
H           3.6715518     1.2699721    -0.3427624
C           4.4471665     1.9013997     1.5970010
H           3.8965979     2.8162479     1.7531172
21
065_C6H10N4O_0-2-3-8 (165,) energy =    -528.8935091
N           5.1905611    -0.9873747    -0.3346094
H           6.0255228    -1.5468704    -0.2136656
C           4.6225374    -1.1002569    -1.5971478
N           3.3765681    -0.4611271    -1.7566416
C           2.2799779    -0.9032989    -0.8818698
H           1.8477516    -1.8516651    -1.2348070
H           1.4894608    -0.1456912    -0.8771598
H           2.6344275    -1.0398306     0.1399889
C           2.9759548    -0.2989459    -3.1558659
H           2.6507407    -1.2454042    -3.6099699
H           3.8174178     0.0837723    -3.7343304
H           2.1494829     0.4175847    -3.1980729
O           5.2052634    -1.6787480    -2.5009236
C           5.3046061     1.1775009     2.3991563
H           5.6710502     1.4256797     3.3857323
N           5.6628991    -0.0096053     1.7876205
C           5.0474032     0.0163424     0.6253002
N           4.3058271     1.1467689     0.4513718
H           3.7831712     1.3598905    -0.3871889
C           4.4668788     1.9088025     1.6020038
H           3.9707744     2.8585874     1.7294153
21
065_C6H10N4O_0-2-3-8 (180,) energy =    -528.8936591
N           5.3532922    -0.2911664    -1.1694773
H           6.2813763    -0.5817680    -1.4539020
C           4.3553271    -1.0380783    -1.8023852
N           3.0419357    -0.5932748    -1.6029757
C           2.7611534     0.8477313    -1.7163525
H           2.6670463     1.1459941    -2.7709240
H           3.5491078     1.4414150    -1.2571380
H           1.8162335     1.0716204    -1.2109321
C           2.0345622    -1.4093106    -2.2867388
H           1.0492557    -1.1542064    -1.8851285
H           2.2377044    -2.4657127    -2.1124256
H           2.0355168    -1.2336411    -3.3714119
O           4.6373846    -2.0077630    -2.4893551
C           5.9255317     1.1450985     1.9656233
H           6.5779262     1.6554320     2.6607397
N           6.3534960     0.8336133     0.6880128
C           5.3267518     0.2324039     0.1288751
N           4.2546356     0.1417854     0.9682794
H           3.3791377    -0.3090522     0.7401520
C           4.6358224     0.7359409     2.1656630
H           3.9605919     0.8094617     3.0041498
