21
065_C6H10N4O_2-0-16-17 (-165,) energy =    -528.8919535
N           5.0616856     0.3896557    -1.3450069
H           6.0310351     0.4363191    -1.6480466
C           4.4567956    -0.6593520    -2.0944010
N           3.1054317    -0.8105946    -1.9684520
C           2.2205058     0.0997993    -1.2606284
H           1.2851684     0.1866443    -1.8260640
H           2.6696523     1.0920274    -1.1965165
H           1.9958296    -0.2530802    -0.2471414
C           2.4846739    -1.9832116    -2.5652873
H           1.9610254    -2.5684032    -1.7980822
H           3.2607023    -2.5929714    -3.0250279
H           1.7577276    -1.6871010    -3.3333219
O           5.1538422    -1.3183116    -2.8581479
C           4.4877352     0.2731770     2.1291537
H           4.1653860    -0.2353889     3.0273699
N           4.4488286    -0.3594343     0.9010738
C           4.9044407     0.5274521     0.0437151
N           5.2432248     1.7027837     0.6599570
H           5.5619222     2.5416513     0.1973937
C           4.9861548     1.5428861     2.0123946
H           5.1922900     2.3210196     2.7313495
21
065_C6H10N4O_2-0-16-17 (-150,) energy =    -528.8917439
N           5.1570506     0.3128984    -1.3472922
H           6.1333987     0.2875562    -1.6296673
C           4.4900830    -0.6870003    -2.1071333
N           3.1343345    -0.7859156    -1.9551486
C           2.2986072     0.1457131    -1.2162311
H           1.3538515     0.2724244    -1.7579809
H           2.7803621     1.1222138    -1.1505813
H           2.0801223    -0.2105182    -0.2017605
C           2.4540017    -1.9155182    -2.5698833
H           1.9167032    -2.4967335    -1.8089922
H           3.1960718    -2.5464430    -3.0562435
H           1.7291863    -1.5699936    -3.3192510
O           5.1401695    -1.3610456    -2.8982764
C           4.5697074     0.2469078     2.1279653
H           4.3230438    -0.2687972     3.0459684
N           4.6509569    -0.4326007     0.9298533
C           4.9678120     0.4797325     0.0361825
N           5.0950760     1.7199629     0.6046207
H           5.2989364     2.5743612     0.1065958
C           4.8526404     1.5777661     1.9580961
H           4.9144644     2.4085934     2.6444644
21
065_C6H10N4O_2-0-16-17 (-135,) energy =    -528.8908923
N           5.2622093     0.2185997    -1.3028932
H           6.2408954     0.1278739    -1.5604075
C           4.5422417    -0.7135311    -2.0955264
N           3.1833887    -0.7705401    -1.9335167
C           2.3817661     0.1653187    -1.1621031
H           1.4184597     0.2962906    -1.6681719
H           2.8671081     1.1409755    -1.1154539
H           2.1954712    -0.1871417    -0.1394674
C           2.4603361    -1.8477968    -2.5931023
H           1.8865316    -2.4267223    -1.8576806
H           3.1794408    -2.4969800    -3.0896324
H           1.7625566    -1.4474824    -3.3410934
O           5.1561157    -1.3833228    -2.9187770
C           4.6439998     0.2348581     2.1682389
H           4.4607552    -0.2664930     3.1088637
N           4.8427075    -0.4796294     1.0069977
C           5.0377399     0.4251768     0.0706645
N           4.9646950     1.6962725     0.5800041
H           5.0740470     2.5449855     0.0436803
C           4.7248285     1.5852203     1.9336476
H           4.6471691     2.4471902     2.5789876
21
065_C6H10N4O_2-0-16-17 (-120,) energy =    -528.8892249
N           5.3149214     0.0766209    -1.2121957
H           6.2867270    -0.0953303    -1.4501273
C           4.5332561    -0.7555885    -2.0516368
N           3.1722873    -0.7637563    -1.8852559
C           2.4086422     0.1590336    -1.0596219
H           1.4100808     0.2629367    -1.4967192
H           2.8684245     1.1484175    -1.0530182
H           2.3002845    -0.1877029    -0.0238686
C           2.4045484    -1.7581217    -2.6228117
H           1.7869695    -2.3480123    -1.9333706
H           3.0972079    -2.4144204    -3.1464554
H           1.7439071    -1.2770105    -3.3568764
O           5.1086548    -1.4079107    -2.9165366
C           4.7182182     0.2411496     2.2584054
H           4.5991916    -0.2179894     3.2304224
N           4.9896226    -0.5149195     1.1404739
C           5.0753092     0.3462976     0.1472242
N           4.8576298     1.6294365     0.5813717
H           4.8920328     2.4527759    -0.0025765
C           4.6368509     1.5752337     1.9395786
H           4.4569438     2.4600293     2.5315510
21
065_C6H10N4O_2-0-16-17 (-105,) energy =    -528.8891346
N           5.1945977    -0.7624822    -0.8170885
H           6.1668226    -0.8350545    -1.0970545
C           4.4231847    -0.9026744    -2.0115215
N           3.0682658    -1.0233260    -1.8762983
C           2.4069287    -1.6207245    -0.7177386
H           2.1336575    -2.6633000    -0.9397890
H           1.4918950    -1.0634253    -0.4892635
H           3.0458000    -1.5811313     0.1597060
C           2.3008489    -1.0852754    -3.1147136
H           2.2034543    -2.1183455    -3.4789789
H           2.7987843    -0.4952245    -3.8832444
H           1.2987983    -0.6844486    -2.9295052
O           5.0085218    -0.9196410    -3.0892047
C           4.3105582     1.3951333     1.8287097
H           3.6900451     1.6599057     2.6737190
N           4.0676035     0.2490595     1.0998386
C           4.9867681     0.2271184     0.1606339
N           5.8349291     1.3022188     0.2677142
H           6.5685413     1.5476737    -0.3816941
C           5.4042466     2.0598387     1.3432897
H           5.9137785     2.9598081     1.6522399
21
065_C6H10N4O_2-0-16-17 (-90,) energy =    -528.8897039
N           5.2414121    -0.8402401    -0.7814203
H           6.2196279    -0.9548044    -1.0247998
C           4.4930891    -0.9721925    -1.9858623
N           3.1279370    -0.9945467    -1.8775647
C           2.4049838    -1.5141786    -0.7180861
H           2.0384095    -2.5295021    -0.9314699
H           1.5408667    -0.8748311    -0.5037342
H           3.0382368    -1.5317382     0.1650826
C           2.3806286    -1.0378442    -3.1286862
H           2.2001887    -2.0720550    -3.4563513
H           2.9421974    -0.5232877    -3.9074347
H           1.4132874    -0.5457911    -2.9808002
O           5.0951897    -1.0598539    -3.0509182
C           4.4178309     1.2664566     1.9242018
H           3.9020554     1.4621130     2.8542174
N           4.2724105     0.0634397     1.2695059
C           5.0179685     0.1545088     0.1895269
N           5.6632369     1.3669466     0.1346613
H           6.2489194     1.6904176    -0.6222910
C           5.2825420     2.0882657     1.2480381
H           5.6611584     3.0788910     1.4499924
21
065_C6H10N4O_2-0-16-17 (-75,) energy =    -528.8902580
N           5.2312391    -0.9676427    -0.6742834
H           6.2128748    -1.1395313    -0.8667181
C           4.5201261    -1.0733474    -1.8984163
N           3.1517646    -1.0114551    -1.8236874
C           2.3728172    -1.4515355    -0.6680118
H           1.8934123    -2.4165367    -0.8892473
H           1.5858226    -0.7215553    -0.4438623
H           3.0017260    -1.5584961     0.2125782
C           2.4283072    -1.0202307    -3.0884524
H           2.1812454    -2.0436963    -3.4062679
H           3.0410993    -0.5587254    -3.8619282
H           1.4953018    -0.4586053    -2.9689067
O           5.1401522    -1.2094584    -2.9480402
C           4.4546086     1.1511318     2.0334077
H           4.0381869     1.3229335     3.0164704
N           4.4126835    -0.0939512     1.4488879
C           4.9949760     0.0440898     0.2765278
N           5.4266465     1.3358815     0.0882994
H           5.8782534     1.6903676    -0.7431799
C           5.0820193     2.0546153     1.2119202
H           5.3131944     3.1038074     1.3192761
21
065_C6H10N4O_2-0-16-17 (-60,) energy =    -528.8906420
N           5.4351871    -0.9203642    -0.7091956
H           6.2951720    -1.4452789    -0.6203971
C           4.6762172    -1.3012808    -1.8200846
N           3.3511074    -0.8765314    -1.8553496
C           2.4602494    -1.0321031    -0.7015087
H           1.8940870    -1.9724105    -0.7794830
H           1.7437688    -0.2033945    -0.6681233
H           3.0154245    -1.0482357     0.2346175
C           2.6773714    -1.0911029    -3.1336501
H           2.3389663    -2.1306228    -3.2529770
H           3.3584740    -0.8590031    -3.9520746
H           1.8052860    -0.4303301    -3.1825256
O           5.2122855    -1.9063740    -2.7386265
C           4.8746957     0.9065962     2.2297490
H           4.8364757     0.9841105     3.3076618
N           5.1593147    -0.2929241     1.6116817
C           5.1253699    -0.0317178     0.3208481
N           4.8461366     1.2873419     0.0792398
H           4.7537650     1.7061541    -0.8349341
C           4.6572335     1.8956192     1.3042897
H           4.3900929     2.9376963     1.3936581
21
065_C6H10N4O_2-0-16-17 (-45,) energy =    -528.8918599
N           5.4124112    -1.0155668    -0.6008583
H           6.2584082    -1.5563277    -0.4812356
C           4.6936441    -1.3485288    -1.7476726
N           3.3884214    -0.8545334    -1.8278657
C           2.4542440    -1.0562403    -0.7133528
H           1.9352492    -2.0215771    -0.8121948
H           1.7014923    -0.2604915    -0.7152334
H           2.9683569    -1.0421268     0.2465496
C           2.7596015    -1.0376394    -3.1354182
H           2.4245743    -2.0729635    -3.2924622
H           3.4699969    -0.7874490    -3.9233277
H           1.8921237    -0.3725985    -3.1992333
O           5.2317812    -1.9762049    -2.6486454
C           5.0172032     0.9899893     2.2393322
H           5.0922534     1.1451450     3.3068224
N           5.3336754    -0.2289973     1.6732841
C           5.1324828    -0.0678420     0.3825772
N           4.7160027     1.2013902     0.0843935
H           4.4586706     1.5281166    -0.8357793
C           4.6112895     1.8840595     1.2833368
H           4.2648318     2.9051343     1.3324421
21
065_C6H10N4O_2-0-16-17 (-30,) energy =    -528.8928750
N           5.3266628    -1.0729137    -0.6164596
H           6.1774828    -1.6095339    -0.5122485
C           4.6366080    -1.3317702    -1.7963657
N           3.3450264    -0.7939379    -1.8840868
C           2.3878816    -1.0549531    -0.7996977
H           1.8934242    -2.0277590    -0.9412121
H           1.6181652    -0.2760495    -0.7953847
H           2.8801508    -1.0580918     0.1717816
C           2.7417713    -0.9174776    -3.2117821
H           2.4061376    -1.9432490    -3.4201239
H           3.4696206    -0.6371017    -3.9732393
H           1.8794140    -0.2451760    -3.2643216
O           5.1729033    -1.9457743    -2.7072403
C           5.1799778     1.0593030     2.1484516
H           5.3853915     1.2708933     3.1887458
N           5.4898608    -0.1699712     1.5987927
C           5.1134145    -0.0818772     0.3413513
N           4.5874095     1.1447737     0.0446953
H           4.1875273     1.4016300    -0.8466644
C           4.6041246     1.8825431     1.2178982
H           4.2097219     2.8859586     1.2672449
21
065_C6H10N4O_2-0-16-17 (-15,) energy =    -528.8937135
N           4.1247168     1.4093958    -1.3721030
H           4.4800956     2.2376297    -1.8361974
C           4.0708561     0.3130555    -2.2388293
N           3.4463085    -0.8299981    -1.7204906
C           2.1283321    -0.6751903    -1.0847183
H           1.3306256    -0.6285524    -1.8408475
H           2.0918211     0.2323710    -0.4839715
H           1.9340407    -1.5344375    -0.4343492
C           3.5228229    -1.9979866    -2.6007365
H           3.2515632    -2.8869930    -2.0231308
H           4.5396391    -2.1052157    -2.9787034
H           2.8445170    -1.9098638    -3.4607584
O           4.5428739     0.3712702    -3.3630747
C           5.0242168     2.0412443     1.9448013
H           5.3011937     2.7359423     2.7257818
N           4.7519724     2.4866020     0.6637917
C           4.4546272     1.3982274    -0.0110076
N           4.4975662     0.2755438     0.7618768
H           4.3837936    -0.6652210     0.4102114
C           4.8802867     0.6845608     2.0354216
H           4.9933592    -0.0168179     2.8476032
21
065_C6H10N4O_2-0-16-17 (0,) energy =    -528.8939587
N           4.2260642     1.3828313    -1.3938163
H           4.5812404     2.2081986    -1.8608337
C           4.0918222     0.2935683    -2.2529769
N           3.4541548    -0.8327214    -1.7098542
C           2.1587442    -0.6420573    -1.0388152
H           1.3413625    -0.5846131    -1.7729636
H           2.1570023     0.2709618    -0.4453021
H           1.9641779    -1.4902214    -0.3742891
C           3.4698210    -2.0018163    -2.5919285
H           3.1943773    -2.8833070    -2.0046494
H           4.4700308    -2.1363807    -3.0038921
H           2.7656654    -1.8961423    -3.4289488
O           4.5254636     0.3356136    -3.3940420
C           4.8930840     2.0373775     1.9712145
H           5.0677813     2.7393703     2.7748935
N           4.6229727     2.4801758     0.6894703
C           4.4655988     1.3818837    -0.0163262
N           4.6119961     0.2530027     0.7353032
H           4.5536443    -0.6887470     0.3729038
C           4.8884272     0.6706835     2.0315291
H           5.0342037    -0.0323206     2.8371318
21
065_C6H10N4O_2-0-16-17 (15,) energy =    -528.8936280
N           4.3415582     1.3612164    -1.4272051
H           4.6877983     2.1896917    -1.8935933
C           4.1269024     0.2884681    -2.2864606
N           3.4731700    -0.8212523    -1.7283011
C           2.2044463    -0.6030642    -1.0171459
H           1.3646100    -0.5396015    -1.7251397
H           2.2337353     0.3154281    -0.4327265
H           2.0179884    -1.4410996    -0.3375518
C           3.4316229    -1.9870370    -2.6133825
H           3.1519911    -2.8630081    -2.0196280
H           4.4146719    -2.1459714    -3.0567759
H           2.7045927    -1.8616858    -3.4279740
O           4.5275953     0.3219937    -3.4404083
C           4.7599614     2.0319062     1.9743403
H           4.8234868     2.7336829     2.7945040
N           4.4978928     2.4645560     0.6879466
C           4.4908389     1.3686048    -0.0391564
N           4.7396050     0.2501340     0.7035882
H           4.7492129    -0.6923642     0.3391915
C           4.9002656     0.6710326     2.0162981
H           5.0821321    -0.0259535     2.8198767
21
065_C6H10N4O_2-0-16-17 (30,) energy =    -528.8928750
N           4.4442444     1.3291895    -1.4556465
H           4.7751213     2.1633428    -1.9219350
C           4.1519344     0.2779717    -2.3186953
N           3.4757530    -0.8120806    -1.7532616
C           2.2423092    -0.5698926    -0.9916056
H           1.3751632    -0.4985875    -1.6652817
H           2.3063205     0.3521572    -0.4155517
H           2.0711010    -1.4001413    -0.2983908
C           3.3722650    -1.9698435    -2.6425489
H           3.0897507    -2.8419901    -2.0442548
H           4.3344453    -2.1522237    -3.1212337
H           2.6205879    -1.8206291    -3.4305716
O           4.5263606     0.3073806    -3.4819861
C           4.5988108     2.0065322     1.9692487
H           4.5360234     2.6981260     2.7980630
N           4.3454971     2.4223837     0.6761256
C           4.5100000     1.3463886    -0.0626607
N           4.8690261     0.2581144     0.6830720
H           4.9889238    -0.6768823     0.3200167
C           4.9045116     0.6721754     2.0052984
H           5.1313250    -0.0089477     2.8111881
21
065_C6H10N4O_2-0-16-17 (45,) energy =    -528.8918599
N           4.5371188     1.3625548    -1.4230068
H           4.8571745     2.2055562    -1.8805615
C           4.1710498     0.3502366    -2.3083736
N           3.4579322    -0.7222605    -1.7649864
C           2.2650607    -0.4746744    -0.9456823
H           1.3690704    -0.3943710    -1.5795214
H           2.3593254     0.4450652    -0.3702547
H           2.1182486    -1.3064860    -0.2482646
C           3.2953593    -1.8545128    -2.6761486
H           3.0086072    -2.7333986    -2.0894608
H           4.2360215    -2.0503275    -3.1908042
H           2.5221833    -1.6675667    -3.4351300
O           4.5361311     0.3932248    -3.4746430
C           4.4067993     1.9985640     2.0155411
H           4.2038502     2.6557674     2.8498887
N           4.1694584     2.4029897     0.7168535
C           4.5196601     1.3766450    -0.0290329
N           4.9869788     0.3332740     0.7235060
H           5.2643447    -0.5673465     0.3606851
C           4.8904752     0.7167809     2.0494277
H           5.1640090     0.0560534     2.8579181
21
065_C6H10N4O_2-0-16-17 (60,) energy =    -528.8906420
N           4.6416751     1.2617130    -1.4369408
H           4.9907495     2.0860024    -1.9077801
C           4.2066346     0.2709984    -2.3226109
N           3.4261231    -0.7520763    -1.7917841
C           2.2789891    -0.4749346    -0.9220152
H           1.3536045    -0.4211015    -1.5149481
H           2.3962688     0.4684013    -0.3917567
H           2.1664142    -1.2780473    -0.1847598
C           3.2022604    -1.8777129    -2.6955892
H           2.9047271    -2.7477743    -2.1006057
H           4.1203407    -2.1022258    -3.2380983
H           2.4120486    -1.6665675    -3.4306666
O           4.5878484     0.2909209    -3.4851479
C           4.2543774     1.9462441     1.9792933
H           3.9183924     2.5787502     2.7894871
N           4.0198545     2.2887763     0.6641701
C           4.5537690     1.3156977    -0.0455307
N           5.1358966     0.3678116     0.7537755
H           5.5888922    -0.4731429     0.4263028
C           4.9252894     0.7525968     2.0629868
H           5.2583610     0.1555602     2.8983825
21
065_C6H10N4O_2-0-16-17 (75,) energy =    -528.8902582
N           4.4769002     1.1527901    -1.4277731
H           5.2063197     1.6961838    -1.8780097
C           4.2588408    -0.0162093    -2.2026583
N           3.2089602    -0.8165768    -1.8282312
C           1.9924441    -0.3228510    -1.1855592
H           1.1718065    -0.2922152    -1.9175405
H           2.1412797     0.6722652    -0.7732338
H           1.6989710    -0.9943880    -0.3699624
C           3.0472915    -2.0651054    -2.5621158
H           2.6001264    -2.8133182    -1.8983825
H           4.0199058    -2.4122971    -2.9087076
H           2.3921293    -1.9383443    -3.4363388
O           5.0002030    -0.2613134    -3.1484881
C           4.1529394     1.4502873     2.0693589
H           3.6065860     1.7580495     2.9503356
N           3.6337480     1.6325975     0.8081028
C           4.5368197     1.1530377    -0.0207110
N           5.6320132     0.6791839     0.6622288
H           6.4425891     0.2436095     0.2448787
C           5.3934783     0.8654557     2.0061520
H           6.1072103     0.5792821     2.7640890
21
065_C6H10N4O_2-0-16-17 (90,) energy =    -528.8897040
N           4.5319145     1.0548576    -1.3903282
H           5.3042299     1.5421305    -1.8323859
C           4.2722677    -0.1090673    -2.1684473
N           3.1691814    -0.8509659    -1.8385736
C           1.9521183    -0.2973034    -1.2477753
H           1.1791869    -0.1863378    -2.0229668
H           2.1437612     0.6656436    -0.7816270
H           1.5710920    -0.9775334    -0.4773157
C           2.9735244    -2.0874260    -2.5856960
H           2.4523903    -2.8089639    -1.9472185
H           3.9404107    -2.4894719    -2.8857052
H           2.3702591    -1.9217493    -3.4901973
O           5.0356435    -0.3911679    -3.0862822
C           4.1674955     1.3069633     2.1084732
H           3.5745299     1.5026519     2.9912847
N           3.6112200     1.3645094     0.8497780
C           4.5872169     1.0755651     0.0164009
N           5.7649919     0.8576150     0.6906482
H           6.6394317     0.5707600     0.2738616
C           5.5031075     1.0046047     2.0377533
H           6.2703788     0.8950112     2.7892443
21
065_C6H10N4O_2-0-16-17 (105,) energy =    -528.8891351
N           4.5478347     0.9674770    -1.3517065
H           5.3517686     1.4064777    -1.7873999
C           4.2653422    -0.2023910    -2.1228071
N           3.1055008    -0.8709103    -1.8485554
C           1.8945492    -0.2420556    -1.3252473
H           1.1774690    -0.0772485    -2.1434205
H           2.1245757     0.6998834    -0.8359946
H           1.4288538    -0.8986820    -0.5822497
C           2.8798858    -2.1057853    -2.5901079
H           2.2772254    -2.7827853    -1.9754328
H           3.8366248    -2.5711888    -2.8238574
H           2.3447898    -1.9186877    -3.5324769
O           5.0618364    -0.5383809    -2.9928996
C           4.1846223     1.1118053     2.1530631
H           3.5754121     1.1528562     3.0454461
N           3.6076893     1.0376818     0.9017982
C           4.6106252     1.0030493     0.0531701
N           5.8179542     1.0792197     0.7038703
H           6.7297782     0.9939317     0.2778947
C           5.5496845     1.1510687     2.0600533
H           6.3342616     1.2340255     2.7966612
21
065_C6H10N4O_2-0-16-17 (120,) energy =    -528.8891139
N           4.5953232     0.8979574    -1.3787424
H           5.4340464     1.2840708    -1.7991287
C           4.2914542    -0.2845708    -2.1322669
N           3.0654745    -0.8404509    -1.9280297
C           1.8982084    -0.1243117    -1.4231809
H           1.1370539    -0.0761174    -2.2151467
H           2.1708307     0.8825034    -1.1196586
H           1.4773107    -0.6351955    -0.5519835
C           2.7838843    -2.1015220    -2.6001531
H           2.1601765    -2.7239178    -1.9491183
H           3.7207496    -2.6138629    -2.8150963
H           2.2479279    -1.9393890    -3.5463308
O           5.1228218    -0.7095078    -2.9270920
C           4.2394557     0.8337707     2.1266489
H           3.6499198     0.6794790     3.0198978
N           3.6859398     0.6573006     0.8721394
C           4.6551754     0.9204152     0.0255494
N           5.8111267     1.2748884     0.6744179
H           6.7092055     1.4551507     0.2496098
C           5.5458868     1.2246648     2.0364258
H           6.2912261     1.4808312     2.7736375
21
065_C6H10N4O_2-0-16-17 (135,) energy =    -528.8895826
N           4.6366982     0.8047528    -1.3137081
H           5.5112329     1.1333997    -1.7097465
C           4.2947906    -0.3717971    -2.0615558
N           3.0274226    -0.8401229    -1.9102801
C           1.9040950    -0.0677956    -1.3928096
H           1.1125617    -0.0419349    -2.1544366
H           2.2169695     0.9499340    -1.1707994
H           1.5114791    -0.5114831    -0.4737142
C           2.6878763    -2.1001886    -2.5552922
H           2.0719884    -2.7016513    -1.8769637
H           3.6038697    -2.6371699    -2.7975235
H           2.1219937    -1.9311263    -3.4823376
O           5.1327744    -0.8573538    -2.8136273
C           4.2208284     0.6552309     2.1805410
H           3.6597050     0.3712502     3.0601315
N           3.7470611     0.3643785     0.9128410
C           4.6547176     0.8373713     0.0899520
N           5.6949007     1.4251951     0.7621691
H           6.5239200     1.8357366     0.3580668
C           5.4150455     1.3142862     2.1202610
H           6.0775021     1.7128016     2.8730377
21
065_C6H10N4O_2-0-16-17 (150,) energy =    -528.8903438
N           4.7529854     0.7185988    -1.3138179
H           5.6613691     0.9779051    -1.6858184
C           4.3575622    -0.4466243    -2.0506233
N           3.0576168    -0.8262842    -1.9349014
C           1.9900394    -0.0094404    -1.3740704
H           1.1487449    -0.0010515    -2.0792176
H           2.3362678     1.0133145    -1.2321699
H           1.6563955    -0.3987852    -0.4079768
C           2.6514307    -2.0825981    -2.5467257
H           2.0721825    -2.6738025    -1.8273746
H           3.5405126    -2.6346399    -2.8475881
H           2.0269197    -1.9032736    -3.4328043
O           5.1821878    -0.9929075    -2.7755196
C           4.2964387     0.5455515     2.1739514
H           3.7877150     0.1666245     3.0495850
N           3.9189994     0.1405764     0.9041415
C           4.7287675     0.7752984     0.0881989
N           5.6201148     1.5661972     0.7644441
H           6.3189917     2.1732094     0.3618062
C           5.3389116     1.4248371     2.1205618
H           5.9023971     1.9494288     2.8765508
21
065_C6H10N4O_2-0-16-17 (165,) energy =    -528.8911559
N           4.8641963     0.6077121    -1.3703620
H           5.7976618     0.7881137    -1.7284330
C           4.3866408    -0.5307657    -2.0949334
N           3.0609467    -0.8141819    -1.9788674
C           2.0691590     0.0488637    -1.3551615
H           1.1747075     0.0667570    -1.9899081
H           2.4546112     1.0653925    -1.2751108
H           1.8019245    -0.3042312    -0.3541383
C           2.5666059    -2.0547786    -2.5564761
H           2.0469616    -2.6450539    -1.7912512
H           3.4101506    -2.6209124    -2.9481726
H           1.8626933    -1.8479360    -3.3737492
O           5.1671916    -1.1367466    -2.8211197
C           4.4104888     0.4396919     2.1183979
H           3.9715471    -0.0028491     3.0019099
N           4.1227011    -0.0586636     0.8582728
C           4.8120589     0.6914700     0.0294632
N           5.5457982     1.6422872     0.6879400
H           6.0966472     2.3754042     0.2659037
C           5.2857792     1.4850138     2.0459998
H           5.7513207     2.1107571     2.7916874
21
065_C6H10N4O_2-0-16-17 (180,) energy =    -528.8917407
N           4.9685553     0.5158990    -1.3685911
H           5.9227362     0.6308333    -1.6991748
C           4.4253511    -0.5804252    -2.1039738
N           3.0840929    -0.7929490    -1.9875614
C           2.1492514     0.0950615    -1.3149717
H           1.2246340     0.1365067    -1.9028202
H           2.5621692     1.1031185    -1.2581866
H           1.9202219    -0.2500805    -0.3007609
C           2.5232565    -2.0013527    -2.5723357
H           2.0071156    -2.5901675    -1.8031692
H           3.3318541    -2.5892414    -3.0035613
H           1.8013838    -1.7500686    -3.3608601
O           5.1654477    -1.2173873    -2.8458387
C           4.4569718     0.3617857     2.1132011
H           4.0764354    -0.1240022     3.0011050
N           4.2899375    -0.2103212     0.8639866
C           4.8634700     0.6244664     0.0267231
N           5.4072832     1.7030438     0.6719378
H           5.8280544     2.5092637     0.2337166
C           5.1492702     1.5371066     2.0270698
H           5.4926943     2.2454944     2.7651627
