21
065_C6H10N4O_16-0-2-3 (-165,) energy =    -528.9066019
N           3.4755529     0.3252935    -0.1090281
H           2.6219991     0.8559698    -0.1995241
C           3.7930318    -0.6988797    -0.9852640
N           2.8784446    -0.9329933    -1.9878869
C           1.6194702    -0.2122927    -2.0994491
H           1.7790344     0.8721780    -2.0880193
H           0.9015773    -0.4776265    -1.3085580
H           1.1640436    -0.4573869    -3.0615947
C           3.0370617    -2.1365515    -2.7946928
H           2.2913096    -2.8992573    -2.5294318
H           4.0339070    -2.5375384    -2.6194788
H           2.9246339    -1.8921464    -3.8571770
O           4.8417792    -1.3424398    -0.8702885
C           5.2637307     2.2285060     2.1979247
H           5.3368832     3.0771532     2.8640403
N           4.1210771     2.0098005     1.4492678
C           4.3848724     0.9126089     0.7724306
N           5.6158042     0.4047017     1.0359869
H           5.9696002    -0.4278762     0.5799061
C           6.2001696     1.2573792     1.9607432
H           7.1958515     1.0887718     2.3409179
21
065_C6H10N4O_16-0-2-3 (-150,) energy =    -528.9047055
N           3.4104726     0.1607415     0.0764170
H           2.5591264     0.6947084    -0.0262124
C           3.7604414    -0.7957998    -0.8697583
N           2.9073326    -0.9278191    -1.9422973
C           1.6771604    -0.1638070    -2.0882729
H           1.8552129     0.9064901    -1.9388635
H           0.8806221    -0.4954740    -1.4048784
H           1.3133970    -0.2872302    -3.1112908
C           3.0705001    -2.0899291    -2.8082873
H           2.2703154    -2.8258739    -2.6464012
H           4.0315553    -2.5506681    -2.5865071
H           3.0508851    -1.7778005    -3.8587313
O           4.7976119    -1.4554416    -0.7533379
C           5.2898118     2.3017510     2.0905706
H           5.3830967     3.2070805     2.6744744
N           4.1096990     1.9980008     1.4344859
C           4.3578921     0.8512212     0.8402949
N           5.6125809     0.3886421     1.0733202
H           5.9624170    -0.4699950     0.6654392
C           6.2326983     1.3306640     1.8809865
H           7.2541011     1.2158094     2.2094576
21
065_C6H10N4O_16-0-2-3 (-135,) energy =    -528.9013299
N           3.3487795    -0.0411519     0.2488279
H           2.4766091     0.4641803     0.1666444
C           3.7135771    -0.9290476    -0.7686612
N           2.9196457    -0.9353537    -1.8915230
C           1.7429653    -0.0940475    -2.0585515
H           1.9497251     0.9374426    -1.7577744
H           0.8668218    -0.4642248    -1.5045677
H           1.4821575    -0.0735043    -3.1199910
C           3.0830034    -2.0295835    -2.8426772
H           2.2240919    -2.7144247    -2.8132088
H           3.9893242    -2.5752586    -2.5858445
H           3.1761245    -1.6299521    -3.8591052
O           4.7325756    -1.6150902    -0.6636704
C           5.2645325     2.3297879     1.9581837
H           5.3603813     3.2825584     2.4604977
N           4.0569968     1.9348460     1.4068389
C           4.3101621     0.7527628     0.8908340
N           5.5932172     0.3507367     1.0787077
H           5.9536570    -0.5248219     0.7196793
C           6.2283290     1.3766170     1.7642633
H           7.2722688     1.3229675     2.0319314
21
065_C6H10N4O_16-0-2-3 (-120,) energy =    -528.8968782
N           3.3029944    -0.2481098     0.4183614
H           2.4013523     0.2095327     0.3619013
C           3.6683685    -1.0778942    -0.6629068
N           2.9285983    -0.9547051    -1.8125183
C           1.8356545    -0.0075372    -1.9884430
H           2.0742179     0.9564900    -1.5318693
H           0.8806150    -0.3756191    -1.5840217
H           1.6991414     0.1652346    -3.0598299
C           3.0916607    -1.9647002    -2.8527153
H           2.1801216    -2.5677097    -2.9632405
H           3.9242286    -2.6101730    -2.5778735
H           3.3096407    -1.4826880    -3.8130366
O           4.6575300    -1.8038562    -0.5724448
C           5.1909355     2.3672587     1.7778634
H           5.2698293     3.3676316     2.1806915
N           3.9738230     1.8717028     1.3376833
C           4.2516290     0.6561828     0.9234726
N           5.5616946     0.3283919     1.0696205
H           5.9490534    -0.5606013     0.7796426
C           6.1864465     1.4418293     1.6146541
H           7.2451799     1.4579272     1.8224358
21
065_C6H10N4O_16-0-2-3 (-105,) energy =    -528.8921512
N           3.2887689    -0.4460514     0.5775239
H           2.3553507    -0.0497797     0.5633205
C           3.6395354    -1.2308419    -0.5602253
N           2.9554930    -0.9710892    -1.7186783
C           1.9720449     0.0938140    -1.8771744
H           2.2323707     0.9623302    -1.2684868
H           0.9510660    -0.2335562    -1.6302720
H           1.9754679     0.4132117    -2.9239631
C           3.1157093    -1.8842189    -2.8446879
H           2.1618403    -2.3686939    -3.0920475
H           3.8512587    -2.6401640    -2.5744385
H           3.4679828    -1.3375620    -3.7278982
O           4.5753999    -2.0209454    -0.4878552
C           5.0774805     2.4034909     1.5648123
H           5.1184370     3.4441646     1.8555037
N           3.8721912     1.8039258     1.2328508
C           4.1952787     0.5633684     0.9438832
N           5.5273210     0.3199028     1.0649621
H           5.9587350    -0.5727720     0.8642357
C           6.1137145     1.5159144     1.4572315
H           7.1774923     1.6067008     1.6137664
21
065_C6H10N4O_16-0-2-3 (-90,) energy =    -528.8878406
N           3.2879711    -0.6086333     0.6916821
H           2.3353870    -0.2562940     0.7107251
C           3.5997230    -1.3705107    -0.4937143
N           3.0041811    -0.9599035    -1.6563054
C           2.0948514     0.1772426    -1.7652849
H           2.3683520     0.9712283    -1.0677536
H           1.0457002    -0.1114069    -1.6025663
H           2.1744541     0.5839197    -2.7782566
C           3.1517448    -1.7892413    -2.8475200
H           2.1789954    -2.1838984    -3.1697361
H           3.8221063    -2.6146400    -2.6135877
H           3.5762150    -1.1980319    -3.6679387
O           4.4347425    -2.2627105    -0.4350977
C           4.9809036     2.3977923     1.3468693
H           4.9897485     3.4642023     1.5252785
N           3.7944591     1.7270887     1.0945340
C           4.1528318     0.4715450     0.9366544
N           5.4958621     0.2895304     1.0625138
H           5.9627387    -0.6029515     0.9758697
C           6.0453218     1.5379661     1.3193522
H           7.1068869     1.6799454     1.4509954
21
065_C6H10N4O_16-0-2-3 (-75,) energy =    -528.8902999
N           4.6887441    -1.2159133    -0.3402640
H           5.4976465    -1.8267478    -0.2601035
C           4.3425639    -1.0959022    -1.7199390
N           3.0494867    -0.6700499    -1.9471213
C           1.9593802    -0.8932858    -0.9980981
H           1.3507988    -1.7535747    -1.3116992
H           1.3060527    -0.0137175    -0.9565224
H           2.3583310    -1.0926702    -0.0055329
C           2.6413264    -0.5319338    -3.3417200
H           2.2537481    -1.4798703    -3.7407806
H           3.4996592    -0.2317095    -3.9417068
H           1.8539913     0.2256058    -3.4131784
O           5.1233939    -1.3921571    -2.6094888
C           5.6794803     1.2658343     1.9285723
H           6.2686745     1.5820235     2.7783755
N           5.7715588    -0.0278463     1.4435137
C           4.9380349    -0.0645067     0.4301324
N           4.2994429     1.1261694     0.2346055
H           3.6707373     1.3395832    -0.5259556
C           4.7874119     2.0022637     1.2014801
H           4.4520799     3.0260616     1.2622353
21
065_C6H10N4O_16-0-2-3 (-60,) energy =    -528.8926009
N           4.8217221    -1.1554463    -0.3861081
H           5.6438615    -1.7449689    -0.3025237
C           4.4017836    -1.0961392    -1.7331095
N           3.1384425    -0.5512917    -1.9295919
C           2.0517489    -0.8009779    -0.9770456
H           1.4943334    -1.7077769    -1.2541044
H           1.3537076     0.0433134    -0.9816538
H           2.4443950    -0.9294967     0.0297249
C           2.7056223    -0.4656664    -3.3234215
H           2.3377764    -1.4329357    -3.6937919
H           3.5442172    -0.1578558    -3.9474495
H           1.8994040     0.2706887    -3.3985485
O           5.0993063    -1.5229427    -2.6392203
C           5.5553305     1.2820256     2.0165702
H           6.0655708     1.5867904     2.9199178
N           5.7025770    -0.0005898     1.5175449
C           4.9583722    -0.0244317     0.4355593
N           4.3251291     1.1628606     0.2094612
H           3.7594623     1.3749429    -0.6001736
C           4.7164938     2.0228002     1.2319049
H           4.3577646     3.0388717     1.2888123
21
065_C6H10N4O_16-0-2-3 (-45,) energy =    -528.8937912
N           4.8747732    -1.1297044    -0.4393267
H           5.6935609    -1.7212840    -0.3558056
C           4.3485739    -1.1541266    -1.7361425
N           3.1162882    -0.5126995    -1.8962155
C           2.0487768    -0.7548924    -0.9157814
H           1.4980631    -1.6760292    -1.1574814
H           1.3413953     0.0809160    -0.9301002
H           2.4574946    -0.8489155     0.0888608
C           2.6355217    -0.4705213    -3.2779620
H           2.2421526    -1.4431429    -3.6051469
H           3.4543804    -0.1939260    -3.9420074
H           1.8384556     0.2761909    -3.3475438
O           4.9420926    -1.7070585    -2.6490605
C           5.4331562     1.2445852     2.0646065
H           5.8845332     1.5297823     3.0049271
N           5.6070099    -0.0276731     1.5507639
C           4.9331109    -0.0265692     0.4220589
N           4.3239276     1.1692923     0.1786079
H           3.7917318     1.3861016    -0.6526694
C           4.6460199     2.0037322     1.2433837
H           4.2823622     3.0180361     1.3008580
21
065_C6H10N4O_16-0-2-3 (-30,) energy =    -528.8938741
N           4.9814535    -1.1065753    -0.5117455
H           5.7790035    -1.7213018    -0.4083078
C           4.3534569    -1.2252064    -1.7472093
N           3.1479104    -0.5148287    -1.8886346
C           2.0950704    -0.7503676    -0.8868474
H           1.5481722    -1.6803143    -1.1027001
H           1.3816812     0.0799630    -0.9062184
H           2.5171461    -0.8204450     0.1147975
C           2.6289228    -0.5130658    -3.2587416
H           2.2127285    -1.4890410    -3.5445063
H           3.4318928    -0.2688009    -3.9545206
H           1.8419116     0.2441949    -3.3292949
O           4.8547998    -1.8846983    -2.6448675
C           5.3863875     1.1867023     2.0891991
H           5.7916987     1.4484416     3.0568905
N           5.5912577    -0.0698994     1.5502410
C           4.9703094    -0.0410083     0.3911268
N           4.3710232     1.1603911     0.1501256
H           3.8608413     1.3866388    -0.6926454
C           4.6331754     1.9642292     1.2524458
H           4.2542768     2.9720388     1.3246886
21
065_C6H10N4O_16-0-2-3 (-15,) energy =    -528.8930933
N           5.0936054    -1.0436668    -0.5986809
H           5.8597459    -1.6885148    -0.4548513
C           4.3793042    -1.2618632    -1.7670572
N           3.1943654    -0.5060503    -1.9123950
C           2.1475138    -0.7316246    -0.8993135
H           1.6135755    -1.6756312    -1.0853101
H           1.4223207     0.0874936    -0.9399474
H           2.5726167    -0.7646869     0.1035297
C           2.6551808    -0.5476663    -3.2752754
H           2.2294296    -1.5291836    -3.5250271
H           3.4487596    -0.3290014    -3.9905301
H           1.8724008     0.2128205    -3.3579318
O           4.8081132    -2.0141557    -2.6283855
C           5.3317129     1.1528358     2.1014695
H           5.6841782     1.3853178     3.0968830
N           5.5738149    -0.0840079     1.5337203
C           5.0121142    -0.0213382     0.3457671
N           4.4215658     1.1858775     0.1113187
H           3.9351109     1.4264303    -0.7415299
C           4.6161680     1.9526597     1.2517561
H           4.2244031     2.9544409     1.3384143
21
065_C6H10N4O_16-0-2-3 (0,) energy =    -528.8916178
N           5.1725109    -0.9656943    -0.6900576
H           5.8988488    -1.6474707    -0.5111155
C           4.3686280    -1.2779828    -1.7770414
N           3.2010001    -0.4897381    -1.9258409
C           2.1668938    -0.6887817    -0.8925680
H           1.6221374    -1.6315665    -1.0523964
H           1.4483375     0.1360116    -0.9369137
H           2.6069613    -0.7070179     0.1047117
C           2.6349967    -0.5734683    -3.2767015
H           2.1976987    -1.5590519    -3.4870440
H           3.4157036    -0.3824037    -4.0142306
H           1.8565204     0.1903925    -3.3686407
O           4.7306209    -2.1092828    -2.5943767
C           5.2793142     1.1042941     2.1174822
H           5.5910311     1.2967229     3.1347780
N           5.5529167    -0.1058646     1.5081808
C           5.0369669     0.0031068     0.3029130
N           4.4525522     1.2183299     0.0946561
H           3.9882184     1.4876919    -0.7616794
C           4.5929544     1.9357770     1.2734975
H           4.1887115     2.9298247     1.3878900
21
065_C6H10N4O_16-0-2-3 (15,) energy =    -528.8893014
N           5.2593393    -0.8751168    -0.7873476
H           5.9692070    -1.5710458    -0.5906211
C           4.3749780    -1.2883261    -1.7802222
N           3.2175602    -0.4833661    -1.9473301
C           2.1961034    -0.6422360    -0.8932786
H           1.6494342    -1.5907430    -1.0073287
H           1.4769672     0.1804379    -0.9616677
H           2.6481381    -0.6205406     0.0988345
C           2.6274407    -0.6304305    -3.2829673
H           2.1870268    -1.6242602    -3.4413638
H           3.3943863    -0.4713069    -4.0426154
H           1.8473716     0.1291558    -3.3950616
O           4.6850949    -2.1916270    -2.5390219
C           5.2263963     1.0413586     2.1355371
H           5.4868689     1.1825685     3.1753838
N           5.5300599    -0.1368982     1.4798302
C           5.0755748     0.0333259     0.2573500
N           4.5068248     1.2614890     0.0809625
H           4.0729006     1.5719600    -0.7771575
C           4.5831180     1.9158116     1.3002995
H           4.1746189     2.9042216     1.4448165
21
065_C6H10N4O_16-0-2-3 (30,) energy =    -528.8904697
N           5.1936877     0.2400517    -1.3386735
H           6.1620542     0.2512767    -1.6399480
C           4.4766905    -0.6272916    -2.1908928
N           3.1458127    -0.8313901    -1.9409134
C           2.2852698     0.0465913    -1.1601488
H           1.3431690     0.1869458    -1.7039074
H           2.7434796     1.0287968    -1.0349673
H           2.0693366    -0.3669908    -0.1686528
C           2.4695139    -1.8703883    -2.7039988
H           1.8214398    -2.4508625    -2.0366163
H           3.2163274    -2.5242855    -3.1511558
H           1.8505473    -1.4417659    -3.5053489
O           5.0834290    -1.1637671    -3.1133015
C           4.5079368     0.4052284     2.1093864
H           4.2002807    -0.0404954     3.0454921
N           4.5584278    -0.3398847     0.9497606
C           4.9632993     0.4973859     0.0179660
N           5.1871965     1.7501969     0.5293803
H           5.4650960     2.5610214    -0.0044214
C           4.9055439     1.6974870     1.8818467
H           5.0220099     2.5544581     2.5277507
21
065_C6H10N4O_16-0-2-3 (45,) energy =    -528.8917282
N           5.1082795     0.3373652    -1.3481719
H           6.0793452     0.3578963    -1.6455391
C           4.4516033    -0.6440691    -2.1342585
N           3.1068816    -0.8054430    -1.9483511
C           2.2403492     0.1039286    -1.2157816
H           1.3009620     0.2142879    -1.7707206
H           2.6998215     1.0905007    -1.1368995
H           2.0194781    -0.2633602    -0.2067650
C           2.4548073    -1.9280497    -2.6050909
H           1.8819632    -2.5101886    -1.8721435
H           3.2167004    -2.5585710    -3.0602968
H           1.7660627    -1.5794597    -3.3871224
O           5.1069576    -1.2654296    -2.9644741
C           4.4901819     0.3218171     2.1196446
H           4.1795680    -0.1668289     3.0330328
N           4.4945448    -0.3558691     0.9170073
C           4.9190227     0.5186634     0.0301692
N           5.1970602     1.7300161     0.6073094
H           5.4917069     2.5621352     0.1172414
C           4.9333145     1.6084937     1.9607026
H           5.0954325     2.4213642     2.6520782
21
065_C6H10N4O_16-0-2-3 (60,) energy =    -528.8918451
N           4.9982376     0.4191517    -1.3293332
H           5.9688011     0.4769091    -1.6284332
C           4.4269550    -0.6671538    -2.0589233
N           3.0705027    -0.8031789    -1.9884616
C           2.1729962     0.1110069    -1.3018123
H           1.2462785     0.1904769    -1.8819938
H           2.6209928     1.1036979    -1.2396173
H           1.9341341    -0.2345971    -0.2889016
C           2.4668081    -2.0000727    -2.5542022
H           1.9691470    -2.5864366    -1.7703334
H           3.2490513    -2.5989371    -3.0177173
H           1.7209186    -1.7296090    -3.3128298
O           5.1529880    -1.3541325    -2.7683337
C           4.4309400     0.2455926     2.1443572
H           4.0952991    -0.2728428     3.0319642
N           4.3733537    -0.3601662     0.9027457
C           4.8541526     0.5310497     0.0642986
N           5.2274678     1.6827701     0.7035209
H           5.5634525     2.5244703     0.2587697
C           4.9648648     1.5022184     2.0534134
H           5.1929391     2.2594798     2.7877975
21
065_C6H10N4O_16-0-2-3 (75,) energy =    -528.8906121
N           4.8587870     0.5549006    -1.3576877
H           5.8087185     0.6854791    -1.7003633
C           4.3856251    -0.6342171    -2.0189561
N           3.0323908    -0.7873356    -2.0556548
C           2.0846558     0.1141758    -1.4189036
H           1.1684309     0.1358392    -2.0193819
H           2.4985765     1.1224072    -1.3822101
H           1.8416099    -0.2080683    -0.3994061
C           2.4948399    -2.0428511    -2.5597518
H           2.0394296    -2.6248250    -1.7470755
H           3.3067459    -2.6153054    -3.0054291
H           1.7279986    -1.8442397    -3.3184191
O           5.1837538    -1.3567327    -2.6015625
C           4.4413363     0.2756677     2.1284956
H           4.0764192    -0.2421631     3.0047440
N           4.2541792    -0.2519106     0.8619453
C           4.8188481     0.6100651     0.0469058
N           5.3673296     1.6683266     0.7188156
H           5.7889273     2.4863226     0.3040663
C           5.1306373     1.4540883     2.0722723
H           5.4848381     2.1373443     2.8287461
21
065_C6H10N4O_16-0-2-3 (90,) energy =    -528.8881871
N           4.1887304     1.1447128    -1.2726403
H           4.9305542     1.6821533    -1.7210361
C           4.2072843    -0.1522383    -1.9106157
N           2.9992307    -0.7748039    -1.9567383
C           1.7548971    -0.2109539    -1.4473740
H           0.9878820    -0.2536220    -2.2312371
H           1.9114187     0.8220733    -1.1448166
H           1.3963271    -0.7855996    -0.5834446
C           2.9198550    -2.1205717    -2.5058309
H           2.5530671    -2.8233962    -1.7462887
H           3.9114738    -2.4232154    -2.8386552
H           2.2271965    -2.1408616    -3.3567382
O           5.2447174    -0.6093826    -2.3862689
C           4.3159398     1.2671316     2.2524322
H           3.9238453     1.5919203     3.2065734
N           3.6968057     1.6145627     1.0708814
C           4.4288853     1.0699128     0.1250189
N           5.4954606     0.3778873     0.6445063
H           6.1618758    -0.1476625     0.0936310
C           5.4280189     0.4966313     2.0154801
H           6.1536482     0.0385285     2.6708307
21
065_C6H10N4O_16-0-2-3 (105,) energy =    -528.8921521
N           4.2973819     0.8950502    -1.1213617
H           3.4912313     1.4712844    -1.3376289
C           4.2487768    -0.4353901    -1.6339613
N           3.0046418    -0.9447991    -1.8978132
C           1.7518882    -0.2545948    -1.6132015
H           1.4187116     0.3791341    -2.4485871
H           1.8342463     0.3508650    -0.7079515
H           0.9769450    -1.0067043    -1.4360674
C           2.9055696    -2.2046244    -2.6263793
H           2.3372957    -2.9369369    -2.0401586
H           3.9114903    -2.5850358    -2.7965179
H           2.3980461    -2.0589690    -3.5891672
O           5.2838446    -1.0868542    -1.7308318
C           4.5793538     1.6144895     2.2985967
H           4.2499678     2.1312721     3.1894491
N           3.9182789     1.7835497     1.0916245
C           4.5815161     1.0239435     0.2489864
N           5.6253578     0.3737408     0.8286199
H           6.2339081    -0.2681441     0.3378011
C           5.6254204     0.7416724     2.1674745
H           6.3509305     0.3550005     2.8663955
21
065_C6H10N4O_16-0-2-3 (120,) energy =    -528.8968779
N           4.1071128     0.8297102    -0.9483515
H           3.2758107     1.3866713    -1.1037287
C           4.1241496    -0.4722113    -1.4909717
N           2.9186217    -0.9853035    -1.9003040
C           1.6448785    -0.2894336    -1.7740681
H           1.4610709     0.4197730    -2.5953148
H           1.5789156     0.2382368    -0.8191381
H           0.8431878    -1.0332930    -1.7909189
C           2.9205681    -2.2047682    -2.7011304
H           2.2581679    -2.9522195    -2.2486821
H           3.9362378    -2.5958517    -2.7298058
H           2.5746286    -2.0050132    -3.7244175
O           5.1708444    -1.1187737    -1.5039306
C           4.7876871     1.7312508     2.3642962
H           4.5730823     2.3133846     3.2499093
N           4.0077295     1.8548736     1.2253480
C           4.5509122     1.0178310     0.3706708
N           5.6305373     0.3651382     0.8741635
H           6.1524840    -0.3306787     0.3565584
C           5.7865406     0.8137298     2.1787057
H           6.5692882     0.4405716     2.8208846
21
065_C6H10N4O_16-0-2-3 (135,) energy =    -528.9013288
N           3.9398888     0.7261667    -0.7709223
H           3.0756875     1.2426976    -0.8666127
C           4.0293760    -0.5422673    -1.3546391
N           2.8730488    -1.0502914    -1.8987833
C           1.6018862    -0.3398900    -1.9101048
H           1.5584689     0.4532904    -2.6720185
H           1.3820966     0.0912142    -0.9286395
H           0.8080719    -1.0581656    -2.1310993
C           2.9774497    -2.2221943    -2.7617552
H           2.2321248    -2.9696211    -2.4666607
H           3.9748555    -2.6436109    -2.6489377
H           2.8104815    -1.9582240    -3.8154102
O           5.0872466    -1.1742407    -1.3164096
C           4.9592988     1.8172725     2.3887035
H           4.8295846     2.4480486     3.2573552
N           4.0651902     1.8698196     1.3323328
C           4.5267748     0.9857533     0.4762266
N           5.6618815     0.3728398     0.8994721
H           6.1241046    -0.3558275     0.3694791
C           5.9462254     0.8980016     2.1520776
H           6.7995378     0.5723808     2.7266887
21
065_C6H10N4O_16-0-2-3 (150,) energy =    -528.9047061
N           3.7753719     0.6136795    -0.5922493
H           2.9046313     1.1219565    -0.6551847
C           3.9224090    -0.6108219    -1.2342760
N           2.8169188    -1.0778889    -1.9088343
C           1.5666047    -0.3393347    -2.0079266
H           1.6300151     0.5255006    -2.6857908
H           1.2280151     0.0007833    -1.0233681
H           0.7978303    -1.0124425    -2.3951448
C           2.9949539    -2.2024667    -2.8203302
H           2.2105267    -2.9486534    -2.6497021
H           3.9678066    -2.6506838    -2.6259849
H           2.9486098    -1.8788701    -3.8697178
O           4.9811203    -1.2421255    -1.1645136
C           5.0779702     1.9066551     2.3749894
H           5.0250840     2.5951086     3.2071626
N           4.0947197     1.8913388     1.4011587
C           4.4798028     0.9478329     0.5696801
N           5.6477585     0.3589618     0.9325255
H           6.0631795    -0.4006667     0.4067767
C           6.0427928     0.9703464     2.1133468
H           6.9429528     0.6790718     2.6321911
21
065_C6H10N4O_16-0-2-3 (165,) energy =    -528.9066007
N           3.6314239     0.4871706    -0.4022585
H           2.7702643     1.0088879    -0.4697706
C           3.8376140    -0.6787263    -1.1199701
N           2.7867054    -1.0890773    -1.9102447
C           1.5565173    -0.3264655    -2.0578281
H           1.6920147     0.5992222    -2.6376052
H           1.1234410    -0.0772996    -1.0823043
H           0.8254654    -0.9463979    -2.5819420
C           3.0259960    -2.1639438    -2.8653742
H           2.2167114    -2.9010317    -2.8097302
H           3.9698255    -2.6436940    -2.6120538
H           3.0816977    -1.7814166    -3.8943580
O           4.8973466    -1.3085441    -1.0334653
C           5.1625969     1.9863966     2.3455485
H           5.1720659     2.7325738     3.1281076
N           4.1074823     1.9044221     1.4544701
C           4.4307574     0.9034986     0.6637402
N           5.6234142     0.3369363     0.9786560
H           6.0011026    -0.4540010     0.4705914
C           6.1070710     1.0311859     2.0776661
H           7.0490393     0.7799339     2.5401536
21
065_C6H10N4O_16-0-2-3 (180,) energy =    -528.9070859
N           3.5144827     0.3629706    -0.2139543
H           2.6824837     0.9223774    -0.3262681
C           3.7806961    -0.7299188    -1.0191166
N           2.7862051    -1.0682315    -1.9089628
C           1.5628098    -0.2965015    -2.0629167
H           1.7333076     0.6865702    -2.5271642
H           1.0563751    -0.1539671    -1.1007135
H           0.8783017    -0.8550411    -2.7050354
C           3.0644762    -2.1050822    -2.8938770
H           2.2441781    -2.8319469    -2.9180388
H           3.9861587    -2.6095083    -2.6086965
H           3.1856163    -1.6795194    -3.8998272
O           4.8401068    -1.3599441    -0.9244667
C           5.2251644     2.0853680     2.2838304
H           5.2868134     2.8979678     2.9945715
N           4.1180474     1.9382954     1.4675966
C           4.3867537     0.8680685     0.7502308
N           5.5887336     0.3124198     1.0488463
H           5.9438090    -0.5050660     0.5670909
C           6.1458054     1.0994732     2.0458496
H           7.1113000     0.8774109     2.4734560
