16
316_C6H9N_0-4-11-9 (-165,) energy =    -288.7976576
C           1.0328701    -0.2582862    -0.2488042
H           0.9245065    -0.2145032     0.8424989
H           0.1948589    -0.8523838    -0.6274703
H           0.9284172     0.7590433    -0.6435483
C           2.3692545    -0.8895867    -0.6628829
H           2.3928047    -0.9989424    -1.7544197
H           2.4082819    -1.9137419    -0.2624966
C           5.6898612     0.6714630     0.1328598
H           6.7558157     0.8393688     0.0552211
C           4.9090741    -0.2307927    -0.6446547
H           5.2676837    -0.8884407    -1.4262082
C           3.5936065    -0.1264428    -0.2315819
N           3.5697985     0.8113016     0.7795969
H           2.7399865     1.1031127     1.2715022
C           4.8347344     1.3052112     1.0068672
H           5.0107126     2.0651522     1.7544859
16
316_C6H9N_0-4-11-9 (-150,) energy =    -288.7983651
C           1.0242333    -0.2321793    -0.3573791
H           0.8580180    -0.0197902     0.7065441
H           0.1871104    -0.8553320    -0.6896824
H           0.9790215     0.7176396    -0.9016042
C           2.3608349    -0.9516082    -0.5956150
H           2.4461029    -1.2195591    -1.6552312
H           2.3443538    -1.9064222    -0.0472328
C           5.6702133     0.6976212     0.0436199
H           6.7191616     0.9173252    -0.1040366
C           4.8617422    -0.1773134    -0.7377805
H           5.1789608    -0.7605594    -1.5927396
C           3.5812008    -0.1595117    -0.2176554
N           3.6052529     0.6979766     0.8631502
H           2.8076579     0.9202916     1.4379277
C           4.8657513     1.2276140     1.0273896
H           5.0733993     1.9397453     1.8130925
16
316_C6H9N_0-4-11-9 (-135,) energy =    -288.7990531
C           1.0315151    -0.2009765    -0.4584513
H           0.8175925     0.1637672     0.5541418
H           0.1898331    -0.8366406    -0.7549498
H           1.0579898     0.6672143    -1.1257064
C           2.3532152    -0.9856534    -0.5169682
H           2.4948793    -1.3870293    -1.5267943
H           2.2718867    -1.8616676     0.1455114
C           5.6367821     0.7549203    -0.0037174
H           6.6616435     1.0318425    -0.2116143
C           4.8095249    -0.1071959    -0.7806585
H           5.0849592    -0.6202979    -1.6930540
C           3.5724905    -0.1819637    -0.1697790
N           3.6400037     0.6091859     0.9594324
H           2.8819020     0.7497633     1.6090270
C           4.8866278     1.1845796     1.0676929
H           5.1243182     1.8515771     1.8839841
16
316_C6H9N_0-4-11-9 (-120,) energy =    -288.7994662
C           1.0617332    -0.1721335    -0.5406645
H           0.8304147     0.3400095     0.4013715
H           0.2039656    -0.8081143    -0.7875921
H           1.1577484     0.5937720    -1.3175525
C           2.3505809    -1.0074179    -0.4322793
H           2.5275073    -1.5271527    -1.3805640
H           2.2021001    -1.7965291     0.3209232
C           5.6064742     0.8173904    -0.0503230
H           6.6014642     1.1489478    -0.3153923
C           4.7590831    -0.0394590    -0.8116209
H           4.9845508    -0.4889249    -1.7701148
C           3.5787149    -0.2074921    -0.1137874
N           3.6979358     0.5263803     1.0496610
H           2.9892410     0.5903747     1.7642579
C           4.9238986     1.1521803     1.0973945
H           5.1993831     1.7769048     1.9349808
16
316_C6H9N_0-4-11-9 (-105,) energy =    -288.7995407
C           1.0889306    -0.1563126    -0.6335480
H           0.8387682     0.4768897     0.2260256
H           0.2170583    -0.7842933    -0.8511132
H           1.2608785     0.5036401    -1.4903113
C           2.3334877    -1.0199874    -0.3529526
H           2.5347201    -1.6568698    -1.2218339
H           2.1162138    -1.7056426     0.4797918
C           5.5600583     0.8755528    -0.0834858
H           6.5214173     1.2597202    -0.3972285
C           4.6911138     0.0296964    -0.8324715
H           4.8614677    -0.3531604    -1.8304833
C           3.5739125    -0.2290800    -0.0617498
N           3.7503028     0.4437953     1.1308782
H           3.0964589     0.4317906     1.8988193
C           4.9527854     1.1149792     1.1287975
H           5.2711881     1.6928848     1.9845435
16
316_C6H9N_0-4-11-9 (-90,) energy =    -288.7993212
C           1.1207144    -0.1578502    -0.7410432
H           0.8605471     0.5911814     0.0158677
H           0.2345584    -0.7774104    -0.9232506
H           1.3626432     0.3769311    -1.6653902
C           2.3128787    -1.0208287    -0.2847469
H           2.5266846    -1.7720842    -1.0543085
H           2.0298978    -1.5852402     0.6156240
C           5.5135089     0.9296662    -0.1102820
H           6.4395937     1.3631910    -0.4634812
C           4.6149832     0.1102738    -0.8531067
H           4.7221478    -0.1961009    -1.8857646
C           3.5659761    -0.2383801    -0.0231739
N           3.8110634     0.3583333     1.1970672
H           3.2167467     0.2692671     2.0072938
C           4.9914844     1.0657382     1.1568590
H           5.3593333     1.5889625     2.0277645
16
316_C6H9N_0-4-11-9 (-75,) energy =    -288.7989172
C           1.1495591    -0.1811060    -0.8525043
H           0.8789110     0.6766107    -0.2264434
H           0.2532488    -0.7962718    -0.9962743
H           1.4583241     0.2065752    -1.8288691
C           2.2833340    -1.0009916    -0.2090429
H           2.5037459    -1.8657958    -0.8479232
H           1.9354611    -1.4174291     0.7467221
C           5.4703544     0.9797561    -0.1266612
H           6.3616609     1.4547837    -0.5143900
C           4.5239068     0.2106852    -0.8629127
H           4.5538999    -0.0086660    -1.9225397
C           3.5457324    -0.2193081     0.0150092
N           3.8806389     0.2800543     1.2566734
H           3.3501205     0.1180999     2.0992843
C           5.0479268     1.0057841     1.1842536
H           5.4771334     1.4636908     2.0637413
16
316_C6H9N_0-4-11-9 (-60,) energy =    -288.7986227
C           1.1762858    -0.2280901    -0.9676593
H           0.8905266     0.7203213    -0.4999000
H           0.2757132    -0.8435608    -1.0781664
H           1.5556014    -0.0018072    -1.9697738
C           2.2406422    -0.9573509    -0.1301977
H           2.4675475    -1.9219781    -0.6052441
H           1.8203081    -1.2037266     0.8548179
C           5.4328942     1.0225562    -0.1246273
H           6.2945656     1.5310510    -0.5362565
C           4.4182943     0.3364102    -0.8519420
H           4.3624582     0.2219974    -1.9267948
C           3.5062760    -0.1688404     0.0570558
N           3.9501880     0.2019747     1.3088677
H           3.4836313    -0.0352371     2.1712296
C           5.1185943     0.9230103     1.2128428
H           5.6195876     1.2965021     2.0942159
16
316_C6H9N_0-4-11-9 (-45,) energy =    -288.7986158
C           1.2166267    -0.2843118    -1.0669686
H           0.9259927     0.7285267    -0.7687238
H           0.3103127    -0.8951446    -1.1478831
H           1.6661228    -0.2211152    -2.0637799
C           2.1983560    -0.8954006    -0.0562940
H           2.4240622    -1.9291094    -0.3582277
H           1.7036780    -0.9740810     0.9222742
C           5.4031672     1.0629190    -0.1272855
H           6.2370164     1.6006239    -0.5585580
C           4.3160637     0.4680065    -0.8306598
H           4.1707466     0.4618844    -1.9029014
C           3.4691697    -0.1079927     0.0987473
N           4.0240000     0.1272361     1.3391753
H           3.6225801    -0.1821177     2.2114084
C           5.1972531     0.8364680     1.2154451
H           5.7726653     1.1212081     2.0844565
16
316_C6H9N_0-4-11-9 (-30,) energy =    -288.7987797
C           1.2598622    -0.3461504    -1.1463903
H           0.9918574     0.7076279    -1.0167677
H           0.3369029    -0.9339565    -1.1975951
H           1.7705100    -0.4452255    -2.1103915
C           2.1501898    -0.8332732     0.0035938
H           2.3588473    -1.9053939    -0.1359054
H           1.5884123    -0.7611037     0.9464915
C           5.3679277     1.1014055    -0.1233646
H           6.1767231     1.6688942    -0.5639619
C           4.2233589     0.5838823    -0.7976912
H           4.0019764     0.6786129    -1.8522623
C           3.4347292    -0.0646417     0.1343118
N           4.0800916     0.0510541     1.3481564
H           3.7347725    -0.3290009     2.2164146
C           5.2539470     0.7564614     1.2043914
H           5.8927473     0.9576565     2.0523248
16
316_C6H9N_0-4-11-9 (-15,) energy =    -288.7989312
C           1.3080498    -0.4132728    -1.1846527
H           1.0790982     0.6573441    -1.2116131
H           0.3639449    -0.9671152    -1.2181094
H           1.8722482    -0.6589711    -2.0908810
C           2.1029710    -0.7752513     0.0745318
H           2.2767280    -1.8627009     0.0860455
H           1.4855789    -0.5644474     0.9608658
C           5.3357074     1.1326309    -0.0851855
H           6.1245479     1.7281542    -0.5248704
C           4.1472121     0.6802858    -0.7309409
H           3.8642113     0.8657933    -1.7581463
C           3.4089127    -0.0412870     0.1878407
N           4.1265423    -0.0337055     1.3666242
H           3.8282853    -0.4796743     2.2208243
C           5.2968084     0.6762726     1.2124094
H           5.9884108     0.7984547     2.0336237
16
316_C6H9N_0-4-11-9 (0,) energy =    -288.7990051
C           1.3508550    -0.4802079    -1.2340215
H           1.1646611     0.5847872    -1.4097374
H           0.3873805    -1.0001117    -1.2518045
H           1.9552497    -0.8576113    -2.0658845
C           2.0592114    -0.7012377     0.1063381
H           2.1893426    -1.7825468     0.2679904
H           1.4009364    -0.3570624     0.9190501
C           5.3067382     1.1786257    -0.0801139
H           6.0770705     1.8026547    -0.5129758
C           4.0823081     0.7837860    -0.6961546
H           3.7465161     1.0520242    -1.6885427
C           3.3889500    -0.0084900     0.1988182
N           4.1669445    -0.0976093     1.3354413
H           3.9153983    -0.6168438     2.1628512
C           5.3328359     0.6187487     1.1764472
H           6.0709012     0.6661203     1.9642841
16
316_C6H9N_0-4-11-9 (15,) energy =    -288.7989312
C           1.3903818    -0.5622203    -1.2527574
H           1.2453084     0.4754211    -1.5724371
H           0.4117128    -1.0535223    -1.2576138
H           2.0262524    -1.0564148    -1.9949190
C           2.0205065    -0.6259578     0.1427212
H           2.1013302    -1.6791924     0.4515335
H           1.3344631    -0.1569047     0.8653572
C           5.2891225     1.2169684    -0.0465767
H           6.0479853     1.8667729    -0.4614517
C           4.0343520     0.8846305    -0.6375412
H           3.6583543     1.2385160    -1.5878282
C           3.3734144     0.0229728     0.2172217
N           4.2003020    -0.1672847     1.3056333
H           3.9814813    -0.7570948     2.0941411
C           5.3654930     0.5518889     1.1556572
H           6.1412495     0.5216924     1.9072727
16
316_C6H9N_0-4-11-9 (30,) energy =    -288.7987795
C           1.4185198    -0.6536652    -1.2635530
H           1.3326220     0.3337571    -1.7299257
H           0.4208825    -1.1060865    -1.2579215
H           2.0720609    -1.2655181    -1.8941026
C           1.9731453    -0.5453685     0.1623201
H           2.0020175    -1.5487730     0.6120221
H           1.2675197     0.0348448     0.7770248
C           5.2667335     1.2538131    -0.0095549
H           6.0193459     1.9272698    -0.3973250
C           3.9825053     0.9948532    -0.5719457
H           3.5717919     1.4420918    -1.4671466
C           3.3450202     0.0642645     0.2273261
N           4.2156435    -0.2386171     1.2537491
H           4.0175141    -0.8925673     1.9958136
C           5.3845128     0.4771318     1.1208306
H           6.1927197     0.3641716     1.8290420
16
316_C6H9N_0-4-11-9 (45,) energy =    -288.7986161
C           1.4641696    -0.7539052    -1.2573008
H           1.4489335     0.1563362    -1.8663352
H           0.4501598    -1.1696731    -1.2536252
H           2.1305961    -1.4709880    -1.7481235
C           1.9360850    -0.4531643     0.1728886
H           1.9066093    -1.3801599     0.7631514
H           1.2144875     0.2257261     0.6514509
C           5.2589510     1.2934702     0.0224666
H           6.0073435     1.9901287    -0.3310952
C           3.9427417     1.1194943    -0.4951750
H           3.4981294     1.6661433    -1.3163439
C           3.3215312     0.1258655     0.2393309
N           4.2335295    -0.2960284     1.1837471
H           4.0571949    -1.0229597     1.8605607
C           5.4128530     0.4035737     1.0621115
H           6.2510512     0.2044091     1.7141353
16
316_C6H9N_0-4-11-9 (60,) energy =    -288.7986227
C           1.5184666    -0.8605659    -1.2330419
H           1.5861998    -0.0534983    -1.9701776
H           0.4921552    -1.2459525    -1.2471542
H           2.1920373    -1.6616204    -1.5564295
C           1.8962303    -0.3551434     0.1697157
H           1.7924544    -1.1775307     0.8912416
H           1.1677515     0.4062148     0.4816205
C           5.2477184     1.3366690     0.0541494
H           5.9956021     2.0525647    -0.2599098
C           3.9005969     1.2544965    -0.4016357
H           3.4269665     1.8993643    -1.1305654
C           3.2892306     0.2023648     0.2559190
N           4.2391717    -0.3463148     1.0915025
H           4.0759882    -1.1370100     1.6962903
C           5.4311200     0.3326130     0.9792842
H           6.2947730     0.0472007     1.5623556
16
316_C6H9N_0-4-11-9 (75,) energy =    -288.7989173
C           1.5719921    -0.9660376    -1.1889905
H           1.7255498    -0.2770535    -2.0260541
H           0.5377904    -1.3283579    -1.2291234
H           2.2402597    -1.8216807    -1.3378102
C           1.8590561    -0.2657218     0.1522414
H           1.6618583    -0.9635240     0.9782180
H           1.1462507     0.5585938     0.2825050
C           5.2382508     1.3677221     0.0970984
H           5.9903807     2.0993511    -0.1664562
C           3.8682717     1.3718616    -0.2933343
H           3.3773817     2.1072817    -0.9178029
C           3.2580373     0.2667718     0.2713171
N           4.2316883    -0.4013657     0.9845774
H           4.0748617    -1.2504040     1.5062941
C           5.4361272     0.2578969     0.8888350
H           6.3164517    -0.1091105     1.3965083
16
316_C6H9N_0-4-11-9 (90,) energy =    -288.7993212
C           1.6046184    -1.0579702    -1.1340527
H           1.8381106    -0.4938954    -2.0430173
H           0.5617144    -1.3913389    -1.1937626
H           2.2445985    -1.9479010    -1.1235586
C           1.8354963    -0.1898240     0.1178419
H           1.5509287    -0.7600800     1.0139916
H           1.1595869     0.6729697     0.0847051
C           5.2309156     1.4067550     0.1491099
H           5.9841110     2.1564046    -0.0534800
C           3.8500938     1.4668595    -0.1975588
H           3.3492834     2.2702117    -0.7224902
C           3.2421292     0.3124532     0.2590704
N           4.2272175    -0.4404516     0.8655803
H           4.0753073    -1.3388270     1.2985391
C           5.4366722     0.2146807     0.8074448
H           6.3262562    -0.2141562     1.2459771
16
316_C6H9N_0-4-11-9 (105,) energy =    -288.7995407
C           1.1636610    -0.7717719     0.0747685
H           1.5116002    -1.5158375     0.7989543
H           0.2672643    -1.1641775    -0.4195726
H           0.8710476     0.1236327     0.6360410
C           2.2664097    -0.4562432    -0.9537966
H           1.8741864     0.2537989    -1.6972295
H           2.5128048    -1.3679579    -1.5098668
C           5.6068393     0.4216499     0.5114249
H           6.6352568     0.2728296     0.8121471
C           4.7609906    -0.5227360    -0.1398089
H           5.0198602    -1.5333587    -0.4283756
C           3.5325175     0.0738778    -0.3497409
N           3.6202444     1.3531314     0.1622066
H           2.8732157     2.0306653     0.1451188
C           4.8746452     1.5746561     0.6854373
H           5.1359437     2.5262342     1.1257594
16
316_C6H9N_0-4-11-9 (120,) energy =    -288.7994662
C           1.1199673    -0.6791960     0.0508942
H           1.3932399    -1.3408911     0.8796670
H           0.2404929    -1.0994009    -0.4502669
H           0.8229903     0.2847871     0.4819150
C           2.2916311    -0.5241592    -0.9358853
H           1.9671743     0.1050048    -1.7790525
H           2.5351817    -1.5016038    -1.3671226
C           5.6408699     0.4528323     0.4442401
H           6.6904150     0.3474975     0.6841511
C           4.8153637    -0.5003869    -0.2204063
H           5.1152370    -1.4737570    -0.5867289
C           3.5439108     0.0298638    -0.3239351
N           3.5867536     1.2799540     0.2607320
H           2.8021561     1.9097803     0.3294198
C           4.8539990     1.5456834     0.7301673
H           5.0817793     2.4794065     1.2241309
16
316_C6H9N_0-4-11-9 (135,) energy =    -288.7990537
C           1.0811904    -0.6032643     0.0136837
H           1.2769129    -1.1616762     0.9353977
H           0.2199240    -1.0586070    -0.4876177
H           0.7864033     0.4148017     0.2978004
C           2.3123415    -0.6071022    -0.9084221
H           2.0585133    -0.0716984    -1.8367613
H           2.5389620    -1.6361233    -1.2095135
C           5.6649803     0.4866954     0.3715908
H           6.7309999     0.4330756     0.5475949
C           4.8591032    -0.4788859    -0.2987602
H           5.1942200    -1.4093512    -0.7386932
C           3.5535086    -0.0266557    -0.2954521
N           3.5576957     1.1909874     0.3548345
H           2.7418883     1.7622779     0.5114598
C           4.8328111     1.5099957     0.7660998
H           5.0320491     2.4233928     1.3080532
16
316_C6H9N_0-4-11-9 (150,) energy =    -288.7983654
C           1.0668674    -0.4978345    -0.0227018
H           1.1895284    -0.9214506     0.9802253
H           0.2199216    -0.9992849    -0.5030602
H           0.7881273     0.5579108     0.0886410
C           2.3420690    -0.6675904    -0.8628599
H           2.1587931    -0.2423171    -1.8619906
H           2.5321490    -1.7349986    -1.0253050
C           5.6961076     0.5345262     0.3135366
H           6.7721228     0.5329045     0.4255468
C           4.9069120    -0.4324383    -0.3734041
H           5.2672603    -1.3102693    -0.8942959
C           3.5798770    -0.0619715    -0.2624443
N           3.5555753     1.1090696     0.4670165
H           2.7195790     1.6154323     0.7133314
C           4.8331520     1.4775569     0.8252859
H           5.0124361     2.3618606     1.4197966
16
316_C6H9N_0-4-11-9 (165,) energy =    -288.7976580
C           1.0516217    -0.4053307    -0.0797468
H           1.1033519    -0.6778993     0.9808135
H           0.2070649    -0.9429316    -0.5228127
H           0.8184770     0.6650370    -0.1469145
C           2.3538421    -0.7503886    -0.8154080
H           2.2370638    -0.4751777    -1.8743651
H           2.4950192    -1.8384653    -0.8076227
C           5.7020310     0.5748373     0.2486049
H           6.7813411     0.6313347     0.2973814
C           4.9288275    -0.3840706    -0.4662172
H           5.3069995    -1.1970055    -1.0728817
C           3.5917918    -0.1027634    -0.2536983
N           3.5466599     1.0066861     0.5645257
H           2.6993072     1.4370317     0.8999562
C           4.8203416     1.4242743     0.8793075
H           4.9849136     2.2724001     1.5281679
16
316_C6H9N_0-4-11-9 (180,) energy =    -288.7973472
C           1.0458094    -0.3133340    -0.1458293
H           1.0192136    -0.4352677     0.9440497
H           0.2023160    -0.8765014    -0.5575629
H           0.8758505     0.7454050    -0.3774847
C           2.3679276    -0.8170768    -0.7390326
H           2.3184362    -0.7320718    -1.8333471
H           2.4605759    -1.8920997    -0.5314292
C           5.6995546     0.6427592     0.2002789
H           6.7751303     0.7591107     0.1886205
C           4.9345179    -0.2934379    -0.5519659
H           5.3166255    -1.0287422    -1.2486053
C           3.6001515    -0.1068461    -0.2401702
N           3.5493207     0.9186663     0.6803275
H           2.7018385     1.2775642     1.0909720
C           4.8161920     1.3820630     0.9554011
H           4.9751928     2.1882399     1.6569128
