14
263_C6H6OS_0-4-10-8 (-165,) energy =    -705.6511254
C           0.9633318    -1.1906533    -0.5215266
H           1.4038734    -1.4755651    -1.4849551
H           0.5283431    -0.1914388    -0.6453239
H           0.1764750    -1.9011160    -0.2618731
C           2.0277748    -1.2118766     0.5618004
O           2.0144099    -2.0457165     1.4555752
C           5.2267882     0.7360321     0.8782116
H           6.2018963     0.8496843     1.3390114
C           4.3118403    -0.3011820     1.1965122
H           4.4875752    -1.0863994     1.9224756
C           3.1351169    -0.2318397     0.4831347
S           3.1650735     1.1310273    -0.6180906
C           4.7434881     1.5883637    -0.0826412
H           5.2240484     2.4629064    -0.5015139
14
263_C6H6OS_0-4-10-8 (-150,) energy =    -705.6494323
C           1.4835547    -1.9728206     0.3546484
H           1.4825466    -1.8791136     1.4475025
H           2.2400130    -2.7238995     0.0958542
H           0.5017830    -2.3127136     0.0197123
C           1.7831442    -0.6212002    -0.2695417
O           0.9249268     0.0150286    -0.8622380
C           4.7305589     1.6246551     0.3610107
H           5.1285482     2.6303231     0.4405327
C           3.3883344     1.3262965     0.0051594
H           2.6245528     2.0634915    -0.2138754
C           3.1216615    -0.0239607    -0.0431926
S           4.5450763    -0.9454859     0.3987830
C           5.4768680     0.4978643     0.5950477
H           6.5243398     0.4336103     0.8592937
14
263_C6H6OS_0-4-10-8 (-135,) energy =    -705.6466437
C           1.4839078    -1.9319098     0.4031064
H           1.4425049    -1.7018978     1.4748052
H           2.2438235    -2.7120046     0.2727448
H           0.5124628    -2.3054190     0.0733665
C           1.8210574    -0.6647647    -0.3627274
O           0.9883635    -0.0847357    -1.0409817
C           4.7099330     1.6063808     0.4348163
H           5.0734899     2.6123059     0.6138265
C           3.3734861     1.2995690     0.0585770
H           2.5846847     2.0311790    -0.0749995
C           3.1536154    -0.0452607    -0.1336781
S           4.6086117    -0.9580851     0.2120887
C           5.4962339     0.4893893     0.5459406
H           6.5501737     0.4346348     0.7851804
14
263_C6H6OS_0-4-10-8 (-120,) energy =    -705.6430686
C           1.4687567    -1.8644713     0.4418722
H           1.3809365    -1.5000280     1.4728000
H           2.2285947    -2.6550998     0.4487371
H           0.5101599    -2.2728080     0.1151970
C           1.8562493    -0.7020594    -0.4548278
O           1.0665035    -0.2041999    -1.2385894
C           4.6943770     1.5799014     0.5051334
H           5.0289383     2.5746263     0.7785961
C           3.3591672     1.2683627     0.1203509
H           2.5485744     1.9874397     0.0776592
C           3.1794478    -0.0540073    -0.2099082
S           4.6666026    -0.9493138     0.0209470
C           5.5169155     0.4857092     0.4883767
H           6.5779128     0.4418960     0.6961043
14
263_C6H6OS_0-4-10-8 (-105,) energy =    -705.6394302
C           1.4385943    -1.7946165     0.4813354
H           1.2633996    -1.2961406     1.4428999
H           2.2049122    -2.5586493     0.6575660
H           0.5139448    -2.2621402     0.1359597
C           1.8970721    -0.7579259    -0.5276475
O           1.1893473    -0.3942400    -1.4480058
C           4.6861809     1.5465501     0.5693948
H           4.9947197     2.5228426     0.9271508
C           3.3439009     1.2194437     0.2125539
H           2.5104241     1.9104382     0.2796681
C           3.2006206    -0.0670332    -0.2436918
S           4.7276828    -0.9167968    -0.1765129
C           5.5470495     0.4972084     0.4052947
H           6.6174448     0.4752096     0.5610782
14
263_C6H6OS_0-4-10-8 (-90,) energy =    -705.6376005
C           1.3402883    -1.7087220     0.4878730
H           1.0774386    -1.0945505     1.3580509
H           2.0383668    -2.4753613     0.8468621
H           0.4448839    -2.1815006     0.0781364
C           2.0093487    -0.8552784    -0.5697895
O           1.5790298    -0.7550641    -1.7011238
C           4.7140017     1.5355685     0.6228565
H           4.9909652     2.4957001     1.0446062
C           3.3629890     1.1294152     0.3926605
H           2.5004219     1.7490124     0.6149503
C           3.2629291    -0.1251913    -0.1485123
S           4.8423231    -0.8253240    -0.3938853
C           5.6221944     0.5851706     0.2520173
H           6.7015541     0.6236228     0.3132630
14
263_C6H6OS_0-4-10-8 (-75,) energy =    -705.6400004
C           1.2153715    -1.5995703     0.4705956
H           0.9576812    -0.8969024     1.2717787
H           1.7721272    -2.4210853     0.9394792
H           0.3088127    -1.9924659     0.0048924
C           2.1048362    -0.9583925    -0.5763632
O           1.9245588    -1.1179359    -1.7690714
C           4.6901137     1.5207997     0.6550356
H           4.9288938     2.4657709     1.1306981
C           3.3679253     0.9984926     0.5439392
H           2.4847895     1.5155327     0.9057230
C           3.3166930    -0.2298041    -0.0704322
S           4.9094991    -0.7184914    -0.5974319
C           5.6281581     0.6952133     0.0976895
H           6.7022607     0.8236284     0.0726452
14
263_C6H6OS_0-4-10-8 (-60,) energy =    -705.6440095
C           1.1747366    -1.4952541     0.4564161
H           0.9243799    -0.7137802     1.1826465
H           1.6321581    -2.3189260     1.0191554
H           0.2692258    -1.8562845    -0.0361601
C           2.1765794    -1.0241455    -0.5821349
O           2.0965717    -1.3578252    -1.7522566
C           4.6737038     1.5010692     0.7042505
H           4.8894497     2.4203067     1.2376978
C           3.3815943     0.9090717     0.6299363
H           2.4952100     1.3422789     1.0822223
C           3.3608992    -0.2736769    -0.0759155
S           4.9418455    -0.6170071    -0.7402856
C           5.6190282     0.7758318     0.0272211
H           6.6805908     0.9727563    -0.0471919
14
263_C6H6OS_0-4-10-8 (-45,) energy =    -705.6477931
C           1.1511362    -1.4340420     0.4253917
H           0.8626644    -0.5695110     1.0330748
H           1.5462263    -2.1937328     1.1113830
H           0.2756740    -1.8372108    -0.0879149
C           2.2288449    -1.1042008    -0.5931085
O           2.2101035    -1.5774869    -1.7190802
C           4.6729056     1.4500426     0.7329123
H           4.8834025     2.3362473     1.3214658
C           3.4021090     0.8150822     0.6782610
H           2.5271601     1.1777010     1.2074233
C           3.3873112    -0.3114805    -0.1170093
S           4.9449457    -0.5473423    -0.8772722
C           5.6069554     0.8124272    -0.0433596
H           6.6535216     1.0625473    -0.1601343
14
263_C6H6OS_0-4-10-8 (-30,) energy =    -705.6507158
C           1.1433813    -1.3826600     0.3847659
H           0.7667322    -0.4427694     0.8034070
H           1.5020527    -1.9926287     1.2227596
H           0.3322095    -1.9087359    -0.1221722
C           2.2826984    -1.1635670    -0.5969851
O           2.3143806    -1.7382632    -1.6758913
C           4.6810586     1.4093131     0.7774249
H           4.8936927     2.2541072     1.4233354
C           3.4314603     0.7344739     0.7351399
H           2.5768214     1.0170076     1.3403143
C           3.4119508    -0.3214325    -0.1525800
S           4.9384988    -0.4495132    -0.9967411
C           5.5927954     0.8691914    -0.0948537
H           6.6197487     1.1742044    -0.2496134
14
263_C6H6OS_0-4-10-8 (-15,) energy =    -705.6526108
C           1.1011105    -1.3442680     0.3695810
H           0.6540307    -0.3623187     0.5630910
H           1.4178414    -1.7575031     1.3345045
H           0.3534106    -2.0009133    -0.0786963
C           2.2902786    -1.2416561    -0.5721877
O           2.3530674    -1.9065456    -1.5974019
C           4.6851387     1.3318876     0.8057445
H           4.9175730     2.1346254     1.4968714
C           3.4502030     0.6304343     0.7875247
H           2.6283322     0.8428094     1.4626927
C           3.3993390    -0.3551845    -0.1765543
S           4.8824742    -0.3996826    -1.1014069
C           5.5555111     0.8766502    -0.1537221
H           6.5612273     1.2250572    -0.3508815
14
263_C6H6OS_0-4-10-8 (0,) energy =    -705.6532839
C           1.0833771    -1.2774659     0.3479126
H           0.6092562    -0.2891269     0.3594278
H           1.3410201    -1.5323754     1.3825650
H           0.3782704    -2.0136315    -0.0418826
C           2.3225470    -1.2742830    -0.5333081
O           2.4229287    -2.0186405    -1.4993534
C           4.7185704     1.2962837     0.8464759
H           4.9763974     2.0561140     1.5759760
C           3.4971390     0.5719445     0.8477298
H           2.7128864     0.7173024     1.5826820
C           3.4059123    -0.3399680    -0.1836263
S           4.8452895    -0.3098149    -1.1750370
C           5.5409778     0.9240620    -0.1884254
H           6.5235182     1.3134883    -0.4219406
14
263_C6H6OS_0-4-10-8 (15,) energy =    -705.6526108
C           1.0455259    -1.2509204     0.2916958
H           0.5466409    -0.2905592     0.1156863
H           1.2302008    -1.3330768     1.3690521
H           0.3906948    -2.0639118    -0.0267863
C           2.3386748    -1.3233004    -0.5046141
O           2.4883964    -2.1344231    -1.4083562
C           4.7375225     1.2434148     0.8792304
H           5.0226954     1.9573723     1.6440926
C           3.5299241     0.4959215     0.8991304
H           2.7892335     0.5716028     1.6878461
C           3.3891670    -0.3382465    -0.1907519
S           4.7810758    -0.2289934    -1.2432050
C           5.5060788     0.9597005    -0.2226679
H           6.4623526     1.3913922    -0.4889479
14
263_C6H6OS_0-4-10-8 (30,) energy =    -705.6507158
C           1.0435545    -1.2147438     0.2451192
H           0.5190505    -0.3373238    -0.1523355
H           1.1411986    -1.0737054     1.3272896
H           0.4513931    -2.1096371     0.0444881
C           2.3910731    -1.3462210    -0.4453786
O           2.5987523    -2.2172412    -1.2781518
C           4.7935440     1.2196058     0.9350231
H           5.1119868     1.8861303     1.7290192
C           3.6034128     0.4446137     0.9758568
H           2.9158107     0.4457572     1.8147078
C           3.4054670    -0.3106775    -0.1615605
S           4.7382300    -0.1123006    -1.2767959
C           5.4977705     1.0290632    -0.2275702
H           6.4222685     1.5066496    -0.5256157
14
263_C6H6OS_0-4-10-8 (45,) energy =    -705.6477931
C           0.9991355    -1.1782567     0.2127514
H           0.4848133    -0.4064570    -0.3734301
H           1.0193997    -0.8336943     1.2523538
H           0.4394363    -2.1131739     0.1411300
C           2.3884504    -1.3731365    -0.3698464
O           2.6448003    -2.3096382    -1.1110702
C           4.8333899     1.1794978     0.9576505
H           5.2022139     1.7989836     1.7677548
C           3.6585325     0.3829572     1.0371363
H           3.0409046     0.3121325     1.9262708
C           3.3779379    -0.2958602    -0.1300360
S           4.6278791    -0.0134157    -1.3207199
C           5.4491751     1.0779941    -0.2638674
H           6.3362567     1.5967378    -0.6037030
14
263_C6H6OS_0-4-10-8 (60,) energy =    -705.6440095
C           0.9640201    -1.1405819     0.1616356
H           0.5128693    -0.4340502    -0.5466167
H           0.9037014    -0.6792470     1.1537658
H           0.3991050    -2.0752119     0.1454518
C           2.3954780    -1.3929511    -0.2759242
O           2.7142083    -2.3980916    -0.8883225
C           4.8774181     1.1577184     0.9894576
H           5.2954949     1.7361334     1.8060101
C           3.7230817     0.3336844     1.1078063
H           3.1761311     0.1951619     2.0349337
C           3.3627790    -0.2770185    -0.0731990
S           4.5191930     0.0947280    -1.3314382
C           5.4017157     1.1416536    -0.2765717
H           6.2472296     1.7024634    -0.6531760
14
263_C6H6OS_0-4-10-8 (75,) energy =    -705.6400004
C           0.9231303    -1.1075911     0.0617700
H           0.5836017    -0.4195964    -0.7231499
H           0.7759937    -0.5911941     1.0176600
H           0.3260256    -2.0216375     0.0288972
C           2.3839442    -1.4286041    -0.1859249
O           2.7491708    -2.5067966    -0.6155963
C           4.9234020     1.1276428     0.9816134
H           5.3994284     1.6729884     1.7892262
C           3.8076530     0.2576524     1.1592362
H           3.3552778     0.0491528     2.1236175
C           3.3566938    -0.2973492    -0.0143901
S           4.3700181     0.1899998    -1.3520150
C           5.3267903     1.2025994    -0.3236888
H           6.1168419     1.8094276    -0.7460533
14
263_C6H6OS_0-4-10-8 (90,) energy =    -705.6376005
C           0.9331177    -1.0231766    -0.0817269
H           0.7711034    -0.3412449    -0.9259089
H           0.6978296    -0.4555088     0.8270629
H           0.2698424    -1.8868782    -0.1668063
C           2.3781966    -1.4766360    -0.0538119
O           2.7010842    -2.6448977    -0.1315471
C           4.9631710     1.1156666     0.9716505
H           5.4990520     1.6396807     1.7556627
C           3.9535993     0.1344649     1.2190267
H           3.6416873    -0.1733964     2.2116333
C           3.4200215    -0.3899409     0.0713285
S           4.1656171     0.3142655    -1.3404290
C           5.1843710     1.3223627    -0.3602427
H           5.8838846     2.0005612    -0.8303222
14
263_C6H6OS_0-4-10-8 (105,) energy =    -705.6394302
C           0.9507028    -0.9731182    -0.2011825
H           0.9231496    -0.4000975    -1.1354923
H           0.6614093    -0.2825607     0.6008259
H           0.2402496    -1.8013682    -0.2469826
C           2.3409266    -1.5056190     0.0932602
O           2.5334648    -2.6581084     0.4322273
C           4.9771596     1.0562355     0.9766720
H           5.5740170     1.5468968     1.7378193
C           4.0804273    -0.0212483     1.2430353
H           3.9040168    -0.4369185     2.2293209
C           3.4590027    -0.5023726     0.1178406
S           3.9323905     0.4225004    -1.2889442
C           5.0100032     1.4015031    -0.3457702
H           5.6228444     2.1501214    -0.8300169
14
263_C6H6OS_0-4-10-8 (120,) energy =    -705.6430686
C           0.9488978    -0.9891288    -0.2853673
H           0.9834354    -0.5581771    -1.2931283
H           0.6053891    -0.1941397     0.3879363
H           0.2415966    -1.8206775    -0.2605673
C           2.3115087    -1.4689679     0.1820391
O           2.4623797    -2.5552619     0.7140619
C           5.0329526     1.0094296     0.9789903
H           5.6982758     1.4470477     1.7152146
C           4.1633953    -0.0863451     1.2455374
H           4.0713277    -0.5774326     2.2079882
C           3.4363965    -0.4869357     0.1496211
S           3.7781263     0.5469077    -1.2218328
C           4.9434619     1.4513148    -0.3136179
H           5.5123801     2.2362618    -0.7942173
14
263_C6H6OS_0-4-10-8 (135,) energy =    -705.6466437
C           0.9383323    -1.0132496    -0.3601123
H           1.0453194    -0.6936442    -1.4038652
H           0.5273683    -0.1609052     0.1946630
H           0.2443466    -1.8540370    -0.3017743
C           2.2656687    -1.4137474     0.2592481
O           2.3852360    -2.4374932     0.9130752
C           5.0924928     0.9618337     0.9702017
H           5.8289292     1.3397226     1.6708906
C           4.2207477    -0.1276135     1.2439619
H           4.1941278    -0.6796895     2.1765964
C           3.3877519    -0.4397742     0.1939403
S           3.6427434     0.6684677    -1.1389501
C           4.9042589     1.4861846    -0.2819611
H           5.4469761     2.2924304    -0.7578270
14
263_C6H6OS_0-4-10-8 (150,) energy =    -705.6494323
C           0.9377185    -1.0537159    -0.4089401
H           1.1213400    -0.8399744    -1.4690915
H           0.4637398    -0.1635112     0.0223277
H           0.2590244    -1.9040346    -0.3199602
C           2.2211668    -1.3590959     0.3432222
O           2.3153742    -2.3269281     1.0828430
C           5.1522681     0.9141775     0.9511612
H           5.9591489     1.2311656     1.6027356
C           4.2718076    -0.1618713     1.2412010
H           4.3060894    -0.7687887     2.1385701
C           3.3355125    -0.3843177     0.2560533
S           3.5183029     0.7836292    -1.0374490
C           4.8727902     1.5150393    -0.2497825
H           5.3936730     2.3376648    -0.7221384
14
263_C6H6OS_0-4-10-8 (165,) energy =    -705.6511255
C           0.9060634    -1.1174325    -0.4458397
H           1.1789131    -1.0097376    -1.5026991
H           0.3893068    -0.1968665    -0.1476031
H           0.2277615    -1.9645410    -0.3290816
C           2.1264675    -1.3348357     0.4318977
O           2.1795527    -2.2522745     1.2379912
C           5.1708206     0.8073481     0.9523744
H           6.0417265     1.0518807     1.5505511
C           4.2701890    -0.2478911     1.2516907
H           4.3505543    -0.9133958     2.1032302
C           3.2434422    -0.3668961     0.3406383
S           3.3805864     0.8613704    -0.9017651
C           4.8209880     1.4920622    -0.1843187
H           5.3323862     2.3279081    -0.6437211
14
263_C6H6OS_0-4-10-8 (180,) energy =    -705.6516624
C           0.9373972    -1.1335190    -0.5004472
H           1.2943741    -1.2390375    -1.5323800
H           0.4533085    -0.1524519    -0.4214014
H           0.2072341    -1.9165394    -0.2888034
C           2.0883543    -1.2526596     0.4837538
O           2.1144887    -2.1301974     1.3346462
C           5.2124418     0.7938170     0.9050426
H           6.1397301     0.9714924     1.4385334
C           4.3059102    -0.2532017     1.2141084
H           4.4382932    -0.9809725     2.0060969
C           3.1971611    -0.2758689     0.3963828
S           3.2740595     1.0218792    -0.7789167
C           4.7888098     1.5648255    -0.1484928
H           5.2820945     2.4212337    -0.5895199
