22
075_C10H8N2O2_2-0-18-17 (-165,) energy =    -645.8245401
N           1.7499786    -1.2556789    -0.8805719
H           2.2909443    -0.8303420    -1.6212672
C           2.2759354    -1.2704770     0.4109535
C           5.6922697     1.2367776     1.1419013
H           6.5607062     1.8575353     1.3447523
C           5.4031287     0.1455138     1.9654661
H           6.0465498    -0.0851112     2.8099362
C           4.2880335    -0.6471426     1.7078757
H           4.0388856    -1.4918882     2.3413968
C           3.4561988    -0.3664715     0.6147535
C           3.7446081     0.7377277    -0.2009239
H           3.0857180     1.0102131    -1.0213197
C           4.8579598     1.5351887     0.0632966
H           5.0676725     2.3937846    -0.5683691
O           1.8192820    -1.9674073     1.3002303
C          -0.7617341    -2.8844800    -2.6214560
H          -1.2456777    -3.1834102    -3.5401486
N           0.4128507    -2.1380108    -2.6296863
C           0.6801255    -1.9835438    -1.3646832
O          -0.1966339    -2.5474878    -0.5131415
C          -1.1316263    -3.1362447    -1.3443471
H          -1.9326912    -3.6656352    -0.8558326
22
075_C10H8N2O2_2-0-18-17 (-150,) energy =    -645.8243624
N           1.7126839    -1.1867997    -0.8859645
H           2.2759486    -0.7983206    -1.6310126
C           2.2758343    -1.2661623     0.3914302
C           5.6903812     1.2328360     1.1488421
H           6.5592580     1.8514034     1.3564976
C           5.4270862     0.1079852     1.9351734
H           6.0911105    -0.1506301     2.7552268
C           4.3115977    -0.6821108     1.6716481
H           4.0827313    -1.5531864     2.2765427
C           3.4534853    -0.3640704     0.6094738
C           3.7160825     0.7730763    -0.1687246
H           3.0356804     1.0695222    -0.9625465
C           4.8301292     1.5674777     0.1016463
H           5.0204227     2.4515960    -0.5002742
O           1.8421209    -2.0077393     1.2550063
C          -0.6927776    -2.9963826    -2.6062243
H          -1.1069726    -3.4145075    -3.5123835
N           0.5112688    -2.2980183    -2.6132701
C           0.6727761    -1.9628294    -1.3664287
O          -0.3016119    -2.3645375    -0.5273306
C          -1.1819641    -3.0449595    -1.3450202
H          -2.0417701    -3.4777137    -0.8609990
22
075_C10H8N2O2_2-0-18-17 (-135,) energy =    -645.8237810
N           1.6744400    -1.1193443    -0.8981197
H           2.2520052    -0.7536400    -1.6444419
C           2.2720432    -1.2566853     0.3625085
C           5.6875764     1.2244006     1.1607267
H           6.5576888     1.8381238     1.3774390
C           5.4461352     0.0651506     1.9030268
H           6.1281575    -0.2248583     2.6973961
C           4.3292738    -0.7191269     1.6283260
H           4.1170920    -1.6171475     2.1990089
C           3.4483885    -0.3594604     0.5986104
C           3.6890250     0.8113008    -0.1355462
H           2.9905116     1.1354721    -0.9020985
C           4.8046697     1.5993282     0.1464543
H           4.9788564     2.5096039    -0.4203373
O           1.8581661    -2.0407394     1.1972473
C          -0.6317563    -3.1221223    -2.5541848
H          -0.9805844    -3.6675959    -3.4191974
N           0.5948760    -2.4639261    -2.5555511
C           0.6589259    -1.9380865    -1.3685252
O          -0.4017878    -2.1820898    -0.5713633
C          -1.2291990    -2.9625063    -1.3494588
H          -2.1422735    -3.2984160    -0.8862015
22
075_C10H8N2O2_2-0-18-17 (-120,) energy =    -645.8227558
N           1.6412072    -1.0555190    -0.9139602
H           2.2236176    -0.6948592    -1.6596466
C           2.2687553    -1.2480668     0.3277536
C           5.6840136     1.2149375     1.1736022
H           6.5546088     1.8241372     1.4009706
C           5.4637045     0.0223022     1.8681657
H           6.1626775    -0.2980278     2.6356980
C           4.3462737    -0.7563855     1.5801315
H           4.1504064    -1.6804037     2.1140063
C           3.4440453    -0.3566709     0.5842403
C           3.6636837     0.8466477    -0.1022043
H           2.9482738     1.1974823    -0.8407496
C           4.7799181     1.6287467     0.1936267
H           4.9383529     2.5643523    -0.3352955
O           1.8711390    -2.0722593     1.1308573
C          -0.5713952    -3.2464796    -2.4745138
H          -0.8586522    -3.9160673    -3.2723798
N           0.6718755    -2.6213427    -2.4612645
C           0.6465718    -1.9113606    -1.3742606
O          -0.4922059    -2.0069997    -0.6527921
C          -1.2687945    -2.8859408    -1.3702736
H          -2.2314510    -3.1276564    -0.9502822
22
075_C10H8N2O2_2-0-18-17 (-105,) energy =    -645.8213366
N           1.6120369    -0.9996056    -0.9271099
H           2.1821208    -0.6101010    -1.6681888
C           2.2695596    -1.2428841     0.2903711
C           5.6833611     1.2037380     1.1866424
H           6.5540254     1.8085317     1.4253039
C           5.4818302    -0.0189150     1.8330060
H           6.1956595    -0.3670712     2.5743023
C           4.3643287    -0.7920051     1.5303422
H           4.1831875    -1.7395494     2.0268610
C           3.4431765    -0.3560179     0.5676016
C           3.6441029     0.8769189    -0.0701946
H           2.9140239     1.2535098    -0.7811338
C           4.7604820     1.6530843     0.2403821
H           4.9046002     2.6114864    -0.2504733
O           1.8900676    -2.1057699     1.0612025
C          -0.5136082    -3.3541316    -2.3848776
H          -0.7452448    -4.1331332    -3.0969163
N           0.7415982    -2.7571157    -2.3405347
C           0.6374164    -1.8855307    -1.3850512
O          -0.5710117    -1.8512552    -0.7740911
C          -1.3012043    -2.8144111    -1.4223705
H          -2.3089796    -2.9706604    -1.0731779
22
075_C10H8N2O2_2-0-18-17 (-90,) energy =    -645.8197232
N           1.5930808    -0.9779198    -0.9078540
H           2.1309099    -0.5291895    -1.6395770
C           2.2820953    -1.2502730     0.2834331
C           5.6870872     1.2071192     1.1875878
H           6.5556480     1.8143101     1.4278451
C           5.5183758    -0.0426802     1.7898616
H           6.2556657    -0.4096808     2.4983925
C           4.4033190    -0.8187834     1.4855784
H           4.2471090    -1.7872905     1.9490185
C           3.4521461    -0.3587764     0.5643134
C           3.6204252     0.9008633    -0.0289796
H           2.8671857     1.2953573    -0.7053286
C           4.7340695     1.6801761     0.2837545
H           4.8526219     2.6591840    -0.1720661
O           1.9290262    -2.1404905     1.0357927
C          -0.4754798    -3.4516001    -2.2602153
H          -0.6658028    -4.3249186    -2.8674026
N           0.7941164    -2.8976298    -2.1574454
C           0.6323888    -1.8828025    -1.3663615
O          -0.6377229    -1.7142352    -0.9157948
C          -1.3381036    -2.7378441    -1.4940673
H          -2.3877428    -2.7999524    -1.2557146
22
075_C10H8N2O2_2-0-18-17 (-75,) energy =    -645.8183200
N           1.5886955    -0.9896690    -0.8796551
H           2.0580772    -0.4372807    -1.5867052
C           2.3127983    -1.2750268     0.2830599
C           5.6846064     1.2352028     1.1773731
H           6.5450059     1.8547859     1.4153512
C           5.5634943    -0.0397278     1.7366588
H           6.3297130    -0.4142464     2.4097059
C           4.4587121    -0.8316728     1.4353805
H           4.3390034    -1.8198395     1.8670308
C           3.4700783    -0.3628480     0.5592933
C           3.5907225     0.9218238     0.0099186
H           2.8092218     1.3251417    -0.6284398
C           4.6939696     1.7170103     0.3199280
H           4.7749700     2.7149818    -0.1017295
O           2.0039409    -2.1928613     1.0213771
C          -0.4803178    -3.5096566    -2.1488603
H          -0.6602729    -4.4550803    -2.6402285
N           0.8046463    -3.0265708    -1.9474270
C           0.6292338    -1.8928446    -1.3436119
O          -0.6757751    -1.5759179    -1.1143371
C          -1.3756433    -2.6263753    -1.6383617
H          -2.4502549    -2.5785020    -1.5626877
22
075_C10H8N2O2_2-0-18-17 (-60,) energy =    -645.8178911
N           1.7606735    -1.2705635    -0.8878118
H           1.9304153    -0.4360281    -1.4309472
C           2.5014516    -1.4835805     0.2745948
C           5.6012314     1.3509824     1.2112344
H           6.3941540     2.0503760     1.4618805
C           5.6324668     0.0466949     1.7112286
H           6.4505674    -0.2717012     2.3512845
C           4.6135441    -0.8474442     1.3936321
H           4.6117674    -1.8606014     1.7814463
C           3.5586916    -0.4542327     0.5582535
C           3.5278414     0.8598253     0.0694596
H           2.6963341     1.2123826    -0.5361391
C           4.5436623     1.7580812     0.3964105
H           4.5041889     2.7765821     0.0204170
O           2.3197489    -2.4487622     0.9932339
C          -0.6663822    -3.5709515    -1.8852536
H          -1.0084570    -4.5609885    -2.1507464
N           0.6560582    -3.3317121    -1.5318612
C           0.6881854    -2.0632583    -1.2735283
O          -0.5028825    -1.4174520    -1.4477128
C          -1.3631280    -2.4087769    -1.8516074
H          -2.3768416    -2.1103739    -2.0651048
22
075_C10H8N2O2_2-0-18-17 (-45,) energy =    -645.8187492
N           1.7697909    -1.3247782    -0.8554244
H           1.8730656    -0.4494097    -1.3484271
C           2.5533345    -1.5491754     0.2788954
C           5.5727059     1.3734042     1.2109008
H           6.3466052     2.0943251     1.4599077
C           5.6716797     0.0544685     1.6610858
H           6.5235139    -0.2541313     2.2606418
C           4.6773553    -0.8675008     1.3453791
H           4.7284253    -1.8929934     1.6955619
C           3.5788092    -0.4872621     0.5616578
C           3.4802671     0.8413261     0.1232726
H           2.6157862     1.1840070    -0.4406112
C           4.4719388     1.7667936     0.4482802
H           4.3800115     2.7955854     0.1115759
O           2.4383115    -2.5454593     0.9668315
C          -0.7515699    -3.5521714    -1.7699743
H          -1.1699101    -4.5388461    -1.9086711
N           0.5348714    -3.3771556    -1.2683529
C           0.6781863    -2.0910149    -1.2304574
O          -0.3912753    -1.3788672    -1.6903364
C          -1.3065195    -2.3477909    -2.0426118
H          -2.2402492    -1.9998468    -2.4532063
22
075_C10H8N2O2_2-0-18-17 (-30,) energy =    -645.8196249
N           1.7475862    -1.3182317    -0.7974493
H           1.8472682    -0.4455490    -1.2958387
C           2.5826278    -1.5634558     0.2943050
C           5.5667698     1.4052362     1.1946761
H           6.3323843     2.1378668     1.4349645
C           5.7158207     0.0762304     1.5993127
H           6.5985585    -0.2283133     2.1546048
C           4.7321544    -0.8608446     1.2949878
H           4.8223629    -1.8947366     1.6109769
C           3.5934763    -0.4851605     0.5684217
C           3.4448173     0.8532471     0.1761399
H           2.5486277     1.1900902    -0.3397010
C           4.4265887     1.7932487     0.4893937
H           4.2959520     2.8291310     0.1892099
O           2.5192059    -2.5824956     0.9548824
C          -0.8162292    -3.5166743    -1.6562030
H          -1.2915606    -4.4863180    -1.6972474
N           0.4205338    -3.3464673    -1.0377972
C           0.6569908    -2.0807356    -1.1750389
O          -0.2993114    -1.3822989    -1.8516582
C          -1.2477235    -2.3380044    -2.1609025
H          -2.1062155    -1.9983487    -2.7165132
22
075_C10H8N2O2_2-0-18-17 (-15,) energy =    -645.8202951
N           1.7053526    -1.2771538    -0.7367392
H           1.8274937    -0.4190980    -1.2551831
C           2.5815759    -1.5539434     0.3136347
C           5.5753394     1.4118238     1.1884226
H           6.3442445     2.1435175     1.4209118
C           5.7498585     0.0729182     1.5480078
H           6.6554391    -0.2399805     2.0602077
C           4.7623733    -0.8634397     1.2540697
H           4.8721316    -1.9052931     1.5360048
C           3.5940833    -0.4761653     0.5828323
C           3.4198783     0.8717499     0.2360918
H           2.5007800     1.2140462    -0.2336146
C           4.4060896     1.8105791     0.5388567
H           4.2562150     2.8537055     0.2748925
O           2.5474806    -2.5923973     0.9454398
C          -0.8697825    -3.4620774    -1.5915359
H          -1.3942351    -4.4064944    -1.5619451
N           0.3037649    -3.2681933    -0.8646076
C           0.6287399    -2.0447507    -1.1380442
O          -0.2111732    -1.3969296    -1.9948262
C          -1.1803155    -2.3409294    -2.2809959
H          -1.9588728    -2.0360895    -2.9605505
22
075_C10H8N2O2_2-0-18-17 (0,) energy =    -645.8207109
N           1.6718128    -1.2548649    -0.6941774
H           1.8189562    -0.4157598    -1.2370074
C           2.5805614    -1.5598902     0.3208177
C           5.5746662     1.4075193     1.1840808
H           6.3438177     2.1403613     1.4121810
C           5.7770352     0.0595280     1.4917275
H           6.7049112    -0.2585946     1.9588219
C           4.7892958    -0.8785561     1.2041217
H           4.9205055    -1.9278301     1.4469001
C           3.5927169    -0.4826204     0.5903680
C           3.3905785     0.8737364     0.2956100
H           2.4494305     1.2174278    -0.1267631
C           4.3774233     1.8137665     0.5926885
H           4.2063699     2.8633657     0.3704867
O           2.5698156    -2.6159698     0.9233634
C          -0.9339851    -3.4132624    -1.5200067
H          -1.5199577    -4.3154941    -1.4175166
N           0.1706501    -3.1770059    -0.7028677
C           0.6042125    -2.0263117    -1.1098195
O          -0.1031227    -1.4640294    -2.1302989
C          -1.1028719    -2.3864503    -2.3833254
H          -1.7932429    -2.1383139    -3.1723510
22
075_C10H8N2O2_2-0-18-17 (15,) energy =    -645.8208460
N           1.6384270    -1.2218934    -0.6511070
H           1.7984675    -0.3956865    -1.2102567
C           2.5898243    -1.5606127     0.3151038
C           5.5781501     1.4078224     1.1903528
H           6.3464543     2.1411896     1.4196146
C           5.8020428     0.0532091     1.4506090
H           6.7454086    -0.2696400     1.8820692
C           4.8157020    -0.8857158     1.1611884
H           4.9641352    -1.9405288     1.3672141
C           3.5984827    -0.4833009     0.5938741
C           3.3747834     0.8792582     0.3472243
H           2.4183726     1.2240854    -0.0377794
C           4.3609323     1.8196948     0.6453827
H           4.1740182     2.8738063     0.4604565
O           2.6104234    -2.6409300     0.8724114
C          -0.9707757    -3.3823609    -1.4596932
H          -1.6048603    -4.2432106    -1.3024400
N           0.0645671    -3.0810061    -0.5763096
C           0.5897370    -2.0109184    -1.0826476
O           0.0012888    -1.5572024    -2.2253172
C          -1.0167512    -2.4656902    -2.4528226
H          -1.6272122    -2.2913199    -3.3232931
22
075_C10H8N2O2_2-0-18-17 (30,) energy =    -645.8206774
N           1.5976661    -1.1692134    -0.6189417
H           1.7772009    -0.3586633    -1.1956208
C           2.5846477    -1.5443745     0.3004553
C           5.5845171     1.4052972     1.1907136
H           6.3560964     2.1345039     1.4222980
C           5.8242675     0.0433774     1.3927165
H           6.7830109    -0.2889795     1.7808864
C           4.8340237    -0.8906072     1.1007662
H           4.9946652    -1.9514300     1.2620682
C           3.5969607    -0.4744899     0.5890493
C           3.3574360     0.8946188     0.4005120
H           2.3866022     1.2447233     0.0594104
C           4.3479837     1.8295286     0.7014717
H           4.1497639     2.8886341     0.5625537
O           2.6243306    -2.6456314     0.8135354
C          -1.0210187    -3.3242525    -1.4129686
H          -1.7106096    -4.1309337    -1.2090470
N          -0.0641691    -2.9405886    -0.4758143
C           0.5651816    -1.9740161    -1.0644468
O           0.1111993    -1.6582497    -2.3100497
C          -0.9266826    -2.5477109    -2.5166608
H          -1.4452635    -2.4676239    -3.4577149
22
075_C10H8N2O2_2-0-18-17 (45,) energy =    -645.8202041
N           1.5547164    -1.1097931    -0.6062895
H           1.7429824    -0.3058837    -1.1903320
C           2.5752471    -1.5234310     0.2625881
C           5.5856075     1.3988657     1.1981207
H           6.3600405     2.1217258     1.4399198
C           5.8377885     0.0308792     1.3334378
H           6.8086962    -0.3122085     1.6797954
C           4.8441850    -0.8953836     1.0287007
H           5.0145793    -1.9612584     1.1386870
C           3.5912679    -0.4641245     0.5709463
C           3.3395085     0.9102569     0.4488428
H           2.3573733     1.2665640     0.1497443
C           4.3338311     1.8369157     0.7626135
H           4.1270409     2.8999400     0.6758785
O           2.6325682    -2.6477505     0.7208233
C          -1.0719007    -3.2622993    -1.3874591
H          -1.8186757    -4.0060749    -1.1488421
N          -0.2008504    -2.7765485    -0.4163753
C           0.5375173    -1.9317536    -1.0624839
O           0.2281143    -1.7850014    -2.3819147
C          -0.8267042    -2.6547438    -2.5719266
H          -1.2460781    -2.6903909    -3.5639306
22
075_C10H8N2O2_2-0-18-17 (60,) energy =    -645.8195189
N           1.5127966    -1.0557319    -0.5849153
H           1.6917578    -0.2414173    -1.1581175
C           2.5654081    -1.5053968     0.2271390
C           5.5891364     1.3822175     1.2193924
H           6.3670309     2.0969127     1.4740919
C           5.8505018     0.0106888     1.2826976
H           6.8319186    -0.3431263     1.5859687
C           4.8526324    -0.9053372     0.9613348
H           5.0300539    -1.9743773     1.0154636
C           3.5860106    -0.4589511     0.5592853
C           3.3251697     0.9182004     0.5091480
H           2.3336651     1.2817562     0.2533414
C           4.3242307     1.8340108     0.8392371
H           4.1113071     2.8989205     0.8084850
O           2.6388166    -2.6520103     0.6250247
C          -1.1362249    -3.1948907    -1.3367790
H          -1.9453105    -3.8607831    -1.0727784
N          -0.3493660    -2.5901577    -0.3626473
C           0.5030154    -1.8913421    -1.0416849
O           0.3436974    -1.9504126    -2.3951229
C          -0.7306328    -2.7943770    -2.5656493
H          -1.0466286    -2.9718545    -3.5807274
22
075_C10H8N2O2_2-0-18-17 (75,) energy =    -645.8188650
N           1.4831043    -0.9979854    -0.5862241
H           1.6308144    -0.1490976    -1.1169014
C           2.5592963    -1.4772711     0.1716423
C           5.5927707     1.3706580     1.2448402
H           6.3730520     2.0757020     1.5184900
C           5.8612649    -0.0008572     1.2321836
H           6.8507258    -0.3643365     1.4952402
C           4.8602921    -0.9045435     0.8862774
H           5.0436472    -1.9739314     0.8811426
C           3.5831101    -0.4451295     0.5357584
C           3.3155281     0.9313219     0.5617878
H           2.3168788     1.3016803     0.3469821
C           4.3177912     1.8344569     0.9161499
H           4.0997628     2.8983991     0.9445237
O           2.6476649    -2.6446661     0.5042926
C          -1.1969761    -3.1088469    -1.3244565
H          -2.0730642    -3.6833398    -1.0597627
N          -0.4939557    -2.3781273    -0.3749236
C           0.4773108    -1.8431616    -1.0433124
O           0.4751806    -2.1346290    -2.3772881
C          -0.6181503    -2.9475624    -2.5398698
H          -0.8213342    -3.2894438    -3.5419929
22
075_C10H8N2O2_2-0-18-17 (90,) energy =    -645.8197232
N           1.4624773    -0.8731218    -0.6924330
H           1.1427781    -0.1046677    -0.1151206
C           2.7448660    -1.3651747    -0.4073360
C           5.5101837     1.3336449     1.4688288
H           6.2197482     2.0009742     1.9504897
C           5.7010788    -0.0496971     1.5245261
H           6.5585627    -0.4603275     2.0502703
C           4.7944329    -0.9044769     0.9035336
H           4.9288648    -1.9808748     0.9254681
C           3.6789455    -0.3847884     0.2321931
C           3.4978236     1.0045621     0.1697893
H           2.6677673     1.4265919    -0.3899854
C           4.4120473     1.8591676     0.7855577
H           4.2708002     2.9346178     0.7244682
O           3.0668207    -2.5065545    -0.6844634
C          -1.1341805    -3.1515737    -1.2337133
H          -1.9359012    -3.7972029    -0.9050973
N          -0.3865455    -2.4022255    -0.3343567
C           0.4578467    -1.7623436    -1.0822778
O           0.3513793    -2.0283307    -2.4098778
C          -0.6735417    -2.9315066    -2.4906614
H          -0.9225119    -3.2927064    -3.4755284
22
075_C10H8N2O2_2-0-18-17 (105,) energy =    -645.8213366
N           1.4492246    -0.8824236    -0.6621132
H           1.1222564    -0.1582807    -0.0339309
C           2.7473870    -1.3632307    -0.4226376
C           5.5075119     1.3300795     1.4671200
H           6.2162109     1.9960328     1.9519325
C           5.7292088    -0.0498203     1.4695241
H           6.6097959    -0.4589615     1.9568180
C           4.8234787    -0.9028485     0.8449612
H           4.9808419    -1.9761959     0.8263976
C           3.6788813    -0.3850991     0.2226178
C           3.4666673     1.0013240     0.2133507
H           2.6119920     1.4231879    -0.3080259
C           4.3795441     1.8543433     0.8331946
H           4.2137973     2.9278378     0.8136839
O           3.0801181    -2.4913710    -0.7378580
C          -1.2389033    -3.0291437    -1.2561242
H          -2.1303883    -3.5624006    -0.9588193
N          -0.5397603    -2.2237542    -0.3636660
C           0.4433214    -1.7575295    -1.0705257
O           0.4757214    -2.1868154    -2.3548210
C          -0.6105102    -3.0178951    -2.4573826
H          -0.7641066    -3.4934004    -3.4125073
22
075_C10H8N2O2_2-0-18-17 (120,) energy =    -645.8227557
N           1.4612448    -0.9320316    -0.6223537
H           1.1294111    -0.2301461     0.0276894
C           2.7789147    -1.3804590    -0.4345569
C           5.4986730     1.3448485     1.4684904
H           6.1983050     2.0185889     1.9556735
C           5.7612188    -0.0272894     1.4280844
H           6.6644883    -0.4226244     1.8842592
C           4.8672303    -0.8902742     0.8003781
H           5.0562903    -1.9573964     0.7483937
C           3.6937845    -0.3909848     0.2178613
C           3.4403729     0.9881751     0.2513661
H           2.5621604     1.3985558    -0.2392279
C           4.3414608     1.8514709     0.8742065
H           4.1434437     2.9195632     0.8877538
O           3.1407247    -2.4873945    -0.7897773
C          -1.3191909    -2.9133284    -1.3114821
H          -2.2863254    -3.3299226    -1.0695015
N          -0.6464215    -2.0746559    -0.4279129
C           0.4511770    -1.7829072    -1.0575610
O           0.5824967    -2.3526117    -2.2760281
C          -0.5662753    -3.0935645    -2.4233889
H          -0.6567761    -3.6609228    -3.3352228
22
075_C10H8N2O2_2-0-18-17 (135,) energy =    -645.8237808
N           1.4760219    -0.9839940    -0.5701948
H           1.1429841    -0.2782299     0.0742660
C           2.8094263    -1.3947978    -0.4340268
C           5.4936126     1.3630066     1.4764098
H           6.1849391     2.0446290     1.9644510
C           5.7948304     0.0008700     1.3927892
H           6.7203565    -0.3790699     1.8162575
C           4.9110970    -0.8717678     0.7638897
H           5.1302022    -1.9309331     0.6784461
C           3.7092036    -0.3933885     0.2232857
C           3.4172572     0.9764557     0.2996437
H           2.5164088     1.3748602    -0.1589882
C           4.3077688     1.8498547     0.9236310
H           4.0788340     2.9108041     0.9701847
O           3.1997973    -2.4790142    -0.8275434
C          -1.3899107    -2.7790244    -1.3682878
H          -2.4159120    -3.0717615    -1.1976939
N          -0.7282970    -1.9098830    -0.5053052
C           0.4554748    -1.8019134    -1.0312643
O           0.6534594    -2.5164893    -2.1583456
C          -0.5501291    -3.1561428    -2.3614519
H          -0.6030662    -3.8131472    -3.2139131
22
075_C10H8N2O2_2-0-18-17 (150,) energy =    -645.8243633
N           1.4873867    -1.0519364    -0.5231662
H           1.1536533    -0.3277888     0.0992641
C           2.8343243    -1.4179405    -0.4435743
C           5.4814086     1.3713880     1.4777794
H           6.1641805     2.0605473     1.9672502
C           5.8201362     0.0216409     1.3498706
H           6.7666939    -0.3414341     1.7403859
C           4.9470269    -0.8602653     0.7189837
H           5.1955447    -1.9095235     0.5991252
C           3.7181073    -0.4050585     0.2207390
C           3.3888703     0.9531378     0.3411418
H           2.4665291     1.3386375    -0.0850988
C           4.2684463     1.8364186     0.9668230
H           4.0094314     2.8883948     1.0470483
O           3.2533538    -2.4753242    -0.8796978
C          -1.4311812    -2.6751510    -1.4556833
H          -2.4932018    -2.8553518    -1.3711164
N          -0.7787078    -1.7725684    -0.6207548
C           0.4585768    -1.8330532    -1.0188724
O           0.6993667    -2.6851015    -2.0343177
C          -0.5381060    -3.2342212    -2.3054969
H          -0.5680304    -3.9739709    -3.0882541
22
075_C10H8N2O2_2-0-18-17 (165,) energy =    -645.8245402
N           1.4950857    -1.1172143    -0.4718469
H           1.1633362    -0.3659318     0.1177846
C           2.8525095    -1.4360177    -0.4538853
C           5.4763130     1.3736224     1.4732757
H           6.1546072     2.0671860     1.9627191
C           5.8458131     0.0372565     1.2991464
H           6.8118117    -0.3113222     1.6536190
C           4.9784092    -0.8501803     0.6681086
H           5.2506070    -1.8887412     0.5121305
C           3.7245039    -0.4151393     0.2163796
C           3.3644028     0.9303146     0.3829518
H           2.4217869     1.3055990    -0.0070681
C           4.2380492     1.8197184     1.0083158
H           3.9542548     2.8619535     1.1239812
O           3.2940971    -2.4647863    -0.9352342
C          -1.4487998    -2.5907629    -1.5454165
H          -2.5262188    -2.6723070    -1.5541875
N          -0.7988639    -1.6504806    -0.7514950
C           0.4605680    -1.8601622    -1.0070339
O           0.7181504    -2.8420434    -1.8910805
C          -0.5353248    -3.3149180    -2.2327782
H          -0.5579413    -4.1311171    -2.9355678
22
075_C10H8N2O2_2-0-18-17 (180,) energy =    -645.8243860
N           1.4935583    -1.1572469    -0.4189930
H           1.1651860    -0.3753606     0.1307443
C           2.8575010    -1.4349282    -0.4577240
C           5.4756799     1.3771320     1.4771462
H           6.1534866     2.0709401     1.9669047
C           5.8683389     0.0553695     1.2507702
H           6.8521320    -0.2819976     1.5648665
C           5.0011881    -0.8319818     0.6192234
H           5.2909967    -1.8588462     0.4229569
C           3.7244206    -0.4128819     0.2193311
C           3.3410997     0.9185533     0.4385038
H           2.3794695     1.2868655     0.0899263
C           4.2141367     1.8085043     1.0639213
H           3.9111421     2.8399932     1.2200484
O           3.3118507    -2.4370376    -0.9822432
C          -1.4503482    -2.5026783    -1.6469372
H          -2.5247829    -2.4987427    -1.7616259
N          -0.7958019    -1.5222329    -0.9074548
C           0.4580738    -1.8625682    -0.9997096
O           0.7079034    -2.9661056    -1.7281093
C          -0.5453700    -3.3760911    -2.1459795
H          -0.5736936    -4.2643684    -2.7548281
