22
075_C10H8N2O2_0-2-9-10 (-165,) energy =    -645.8207223
N           1.8705044    -1.5277308    -0.6596678
H           2.7383735    -1.9992783    -0.8713678
C           1.8981438    -0.4525726     0.2320452
C           5.7544855     1.1634234     1.2538368
H           6.7171053     1.5849723     1.5300891
C           5.6487746     0.3423815     0.1300675
H           6.5247618     0.1315343    -0.4769062
C           4.4143491    -0.2006692    -0.2256642
H           4.3521002    -0.8013816    -1.1294832
C           3.2724963     0.0697547     0.5432783
C           3.3849818     0.9131107     1.6578418
H           2.4884127     1.1309329     2.2283510
C           4.6184362     1.4505467     2.0149185
H           4.6945941     2.0964802     2.8851404
O           0.8907994     0.0245982     0.7182999
C          -1.1397958    -2.9027077    -1.7464778
H          -2.2129699    -2.9182519    -1.8726849
N          -0.5087720    -1.8506999    -1.0842856
C           0.7438261    -2.1769575    -1.1263871
O           1.0189009    -3.3510187    -1.7620206
C          -0.2245328    -3.8077706    -2.1607443
H          -0.2412276    -4.7422880    -2.6966444
22
075_C10H8N2O2_0-2-9-10 (-150,) energy =    -645.8206731
N           1.8651843    -1.5073400    -0.6332780
H           2.7334278    -2.0153772    -0.7310736
C           1.8741171    -0.3320797     0.1238557
C           5.7610040     1.0960638     1.2812058
H           6.7354777     1.4633037     1.5913782
C           5.6271585     0.4081928     0.0740404
H           6.4926673     0.2488893    -0.5630433
C           4.3777195    -0.0691108    -0.3227292
H           4.2805191    -0.5733718    -1.2810647
C           3.2507212     0.1475289     0.4831676
C           3.3897654     0.8547027     1.6851901
H           2.5048211     1.0315067     2.2878342
C           4.6398262     1.3198755     2.0850461
H           4.7411284     1.8593059     3.0226560
O           0.8614246     0.2333050     0.4869220
C          -1.1111729    -2.9025366    -1.7844990
H          -2.1722004    -2.8976394    -1.9895597
N          -0.4865581    -1.8014793    -1.2006212
C           0.7514830    -2.1709370    -1.1108260
O           1.0229967    -3.4198020    -1.5842099
C          -0.2064888    -3.8793312    -2.0212129
H          -0.2231296    -4.8691527    -2.4463723
22
075_C10H8N2O2_0-2-9-10 (-135,) energy =    -645.8193429
N           1.8588767    -1.4950000    -0.5912271
H           2.7242119    -2.0175832    -0.6054628
C           1.8679421    -0.2317551     0.0067841
C           5.7647054     1.0374371     1.3039979
H           6.7443158     1.3585761     1.6473320
C           5.6209681     0.4737757     0.0351530
H           6.4845925     0.3640459    -0.6149145
C           4.3647255     0.0528134    -0.4032848
H           4.2541792    -0.3710199    -1.3985966
C           3.2416326     0.2153096     0.4192513
C           3.3902514     0.7887928     1.6888109
H           2.5107918     0.9182719     2.3118485
C           4.6481866     1.1928413     2.1302406
H           4.7590891     1.6302648     3.1185585
O           0.8628220     0.4130515     0.2281980
C          -1.0813007    -2.9173768    -1.8002124
H          -2.1286859    -2.9071959    -2.0661561
N          -0.4618407    -1.7844195    -1.2745166
C           0.7592776    -2.1713978    -1.0834941
O           1.0243176    -3.4611766    -1.4341748
C          -0.1905691    -3.9297332    -1.9016337
H          -0.2092216    -4.9514797    -2.2428852
22
075_C10H8N2O2_0-2-9-10 (-120,) energy =    -645.8170913
N           1.6381493    -1.3390290    -0.3641161
H           1.3775572    -0.7007760     0.3756873
C           2.9750023    -1.3502202    -0.7701166
C           5.3797164     1.4100184     1.4878236
H           5.9853090     2.1157220     2.0498419
C           4.7130614     0.3791853     2.1520413
H           4.8028579     0.2763402     3.2299711
C           3.9269751    -0.5219587     1.4319429
H           3.4092095    -1.3261621     1.9491604
C           3.8296977    -0.4112830     0.0388922
C           4.4985736     0.6254131    -0.6237208
H           4.4185998     0.7027474    -1.7039586
C           5.2689309     1.5336798     0.1003407
H           5.7832194     2.3385814    -0.4174609
O           3.3877426    -1.9909577    -1.7143641
C          -0.7512556    -3.3718305    -1.8777914
H          -1.0813082    -4.1416081    -2.5606810
N           0.5940623    -3.0157974    -1.7911993
C           0.6005182    -2.0845615    -0.8911702
O          -0.6158078    -1.7783692    -0.3591180
C          -1.4845505    -2.6315032    -1.0160674
H          -2.5238080    -2.5593020    -0.7413174
22
075_C10H8N2O2_0-2-9-10 (-105,) energy =    -645.8148603
N           1.6334551    -1.3101479    -0.3895878
H           1.3569048    -0.5803991     0.2537230
C           2.9945579    -1.4439562    -0.6699280
C           5.3763458     1.4328978     1.4729359
H           5.9792298     2.1609343     2.0087756
C           4.8394241     0.3364426     2.1496203
H           5.0251588     0.2067374     3.2123021
C           4.0595967    -0.5957464     1.4629594
H           3.6404059    -1.4487575     1.9906095
C           3.8335676    -0.4447210     0.0895597
C           4.3689644     0.6585936    -0.5860012
H           4.1915441     0.7729957    -1.6517124
C           5.1384193     1.5936363     0.1058741
H           5.5524501     2.4480581    -0.4224161
O           3.4454289    -2.2389296    -1.4667112
C          -0.7521426    -3.3802545    -1.8587602
H          -1.0749300    -4.2021464    -2.4817449
N           0.6012317    -3.0790627    -1.7099125
C           0.5952569    -2.0593904    -0.9116174
O          -0.6364939    -1.6431391    -0.5050635
C          -1.5024472    -2.5196427    -1.1343930
H          -2.5528269    -2.3707701    -0.9465000
22
075_C10H8N2O2_0-2-9-10 (-90,) energy =    -645.8139765
N           1.6185497    -1.2912620    -0.4265757
H           1.3226368    -0.4738726     0.0904945
C           2.9900978    -1.5279210    -0.5295090
C           5.4064515     1.4398800     1.4472029
H           6.0278988     2.1814445     1.9416908
C           4.9945476     0.2993388     2.1393586
H           5.2955188     0.1502345     3.1726884
C           4.1977657    -0.6547837     1.5056320
H           3.8854494    -1.5479666     2.0402173
C           3.8087154    -0.4695181     0.1736994
C           4.2251177     0.6731310    -0.5195711
H           3.9333447     0.8116554    -1.5573017
C           5.0225350     1.6246197     0.1175670
H           5.3455062     2.5084824    -0.4256415
O           3.4714302    -2.4754075    -1.1121888
C          -0.7260731    -3.4323197    -1.8602789
H          -1.0314865    -4.2999509    -2.4274996
N           0.6230436    -3.1499898    -1.6485227
C           0.5949247    -2.0622944    -0.9462970
O          -0.6479498    -1.5819168    -0.6632462
C          -1.4964493    -2.4912028    -1.2694723
H          -2.5519515    -2.2996255    -1.1695670
22
075_C10H8N2O2_0-2-9-10 (-75,) energy =    -645.8151218
N           1.5996804    -1.2689835    -0.4468306
H           1.3050357    -0.3814830    -0.0613878
C           2.9572178    -1.5857730    -0.3733865
C           5.4354977     1.4491200     1.4068043
H           6.0795200     2.2026792     1.8518056
C           5.1534626     0.2713223     2.1033397
H           5.5786432     0.1064618     3.0895295
C           4.3348437    -0.7015245     1.5313427
H           4.1327437    -1.6298722     2.0580660
C           3.7708999    -0.4879424     0.2674853
C           4.0675235     0.6861840    -0.4354304
H           3.6556791     0.8407705    -1.4296052
C           4.8978545     1.6525234     0.1350907
H           5.1284549     2.5598301    -0.4164685
O           3.4263574    -2.6423975    -0.7388493
C          -0.7181212    -3.4409081    -1.8773328
H          -1.0163688    -4.3425593    -2.3929668
N           0.6218944    -3.1891208    -1.5850358
C           0.5867189    -2.0453347    -0.9787085
O          -0.6526382    -1.4985798    -0.8349136
C          -1.4903977    -2.4254344    -1.4292937
H          -2.5412699    -2.1878916    -1.4302785
22
075_C10H8N2O2_0-2-9-10 (-60,) energy =    -645.8174421
N           1.5860857    -1.2584654    -0.4507222
H           1.3086565    -0.3248494    -0.1783595
C           2.9114787    -1.6346010    -0.2199670
C           5.4540369     1.4475273     1.3672261
H           6.1157234     2.2120998     1.7650733
C           5.2954212     0.2370671     2.0480326
H           5.8341749     0.0591552     2.9746097
C           4.4574436    -0.7500400     1.5338778
H           4.3517349    -1.7058049     2.0382462
C           3.7414136    -0.5170527     0.3526340
C           3.9193648     0.6879437    -0.3392765
H           3.4002228     0.8546757    -1.2800602
C           4.7733408     1.6683107     0.1692836
H           4.9126670     2.5984776    -0.3746798
O           3.3366606    -2.7563500    -0.4024686
C          -0.7252357    -3.4563343    -1.8500766
H          -1.0308379    -4.3926859    -2.2946808
N           0.5978144    -3.2403892    -1.4665355
C           0.5783167    -2.0375311    -0.9869370
O          -0.6351559    -1.4186514    -1.0114485
C          -1.4724461    -2.3623017    -1.5795707
H          -2.5042222    -2.0757130    -1.6981554
22
075_C10H8N2O2_0-2-9-10 (-45,) energy =    -645.8195971
N           1.6012086    -1.2240089    -0.5127161
H           1.3426121    -0.2622214    -0.3386002
C           2.8715569    -1.6427743    -0.1073497
C           5.4732968     1.4598896     1.3341839
H           6.1463974     2.2300883     1.7008381
C           5.3960803     0.2276230     1.9896632
H           6.0093326     0.0388824     2.8664044
C           4.5423072    -0.7647780     1.5145241
H           4.4920132    -1.7368393     1.9948847
C           3.7319036    -0.5199574     0.3980159
C           3.8275658     0.7088756    -0.2693737
H           3.2434714     0.8876888    -1.1689723
C           4.6960309     1.6957578     0.1993322
H           4.7723623     2.6428124    -0.3276212
O           3.2288117    -2.8035027    -0.1122509
C          -0.7048425    -3.4516104    -1.8725883
H          -1.0155163    -4.4066418    -2.2716405
N           0.6049843    -3.2434784    -1.4428231
C           0.5965289    -2.0128710    -1.0391477
O          -0.5976992    -1.3677535    -1.1588763
C          -1.4333899    -2.3245298    -1.7068585
H          -2.4499767    -2.0204703    -1.8935751
22
075_C10H8N2O2_0-2-9-10 (-30,) energy =    -645.8207410
N           1.6151008    -1.2121246    -0.5708518
H           1.3727118    -0.2346762    -0.4853072
C           2.8197950    -1.6425665    -0.0071092
C           5.4980735     1.4518885     1.3130744
H           6.1853414     2.2197510     1.6576866
C           5.4863154     0.1957175     1.9256937
H           6.1640694    -0.0148234     2.7482864
C           4.6107129    -0.7906769     1.4797161
H           4.5990615    -1.7778556     1.9300295
C           3.7214359    -0.5242017     0.4295415
C           3.7483975     0.7324240    -0.1923705
H           3.1080713     0.9392543    -1.0463263
C           4.6344493     1.7156467     0.2488039
H           4.6563637     2.6829276    -0.2453642
O           3.1025121    -2.8151665     0.1420309
C          -0.7076405    -3.4772845    -1.8376554
H          -1.0351606    -4.4535607    -2.1654814
N           0.5868481    -3.2754633    -1.3612398
C           0.6062126    -2.0139848    -1.0686664
O          -0.5553235    -1.3422890    -1.3077311
C          -1.3994103    -2.3156586    -1.8115988
H          -2.3931128    -1.9954359    -2.0776777
22
075_C10H8N2O2_0-2-9-10 (-15,) energy =    -645.8206891
N           1.6146355    -1.2039825    -0.6140885
H           1.4052863    -0.2167882    -0.6548200
C           2.7492777    -1.6157218     0.0890630
C           5.5338817     1.4378096     1.2943190
H           6.2450198     2.1929506     1.6178852
C           5.5740219     0.1544637     1.8452247
H           6.3160191    -0.0915559     2.5996939
C           4.6636525    -0.8128383     1.4287674
H           4.6800934    -1.8171170     1.8384969
C           3.6961955    -0.5090774     0.4602346
C           3.6675901     0.7792722    -0.0944289
H           2.9663116     1.0344373    -0.8849145
C           4.5830189     1.7463187     0.3202217
H           4.5573932     2.7374252    -0.1239326
O           2.9552989    -2.7782735     0.3805499
C          -0.7246748    -3.5048252    -1.7820844
H          -1.0760606    -4.4982330    -2.0219451
N           0.5425740    -3.3027474    -1.2374668
C           0.6036358    -2.0179114    -1.0872488
O          -0.5049658    -1.3312959    -1.4845671
C          -1.3594698    -2.3208433    -1.9364005
H          -2.3160184    -1.9932443    -2.3085472
22
075_C10H8N2O2_0-2-9-10 (0,) energy =    -645.8201460
N           1.6012710    -1.2112738    -0.6326719
H           1.5207253    -0.2536251    -0.9402339
C           2.6775197    -1.5828947     0.1711604
C           5.5668968     1.4207998     1.2713516
H           6.3102437     2.1571756     1.5642552
C           5.6837079     0.0960334     1.6979494
H           6.5190313    -0.2035277     2.3246880
C           4.7298979    -0.8451098     1.3213884
H           4.8004608    -1.8789943     1.6411276
C           3.6435780    -0.4793954     0.5126127
C           3.5352273     0.8539476     0.0889362
H           2.7143205     1.1904728    -0.5395324
C           4.4907931     1.7969109     0.4661083
H           4.3926881     2.8252811     0.1300037
O           2.8275903    -2.7222465     0.5711513
C          -0.8259674    -3.5125116    -1.6058876
H          -1.2803724    -4.4924079    -1.6404010
N           0.3520327    -3.2918073    -0.8933983
C           0.5839533    -2.0313307    -1.0797746
O          -0.3297151    -1.3789230    -1.8537844
C          -1.2417808    -2.3644800    -2.1866033
H          -2.0673798    -2.0613152    -2.8088939
22
075_C10H8N2O2_0-2-9-10 (15,) energy =    -645.8206891
N           1.6230544    -1.2087142    -0.6268116
H           1.7269913    -0.3487470    -1.1461267
C           2.6269205    -1.5670212     0.2760931
C           5.5787304     1.4191042     1.2258032
H           6.3405738     2.1537928     1.4717265
C           5.7797705     0.0706399     1.5312832
H           6.6992890    -0.2473094     2.0147274
C           4.8022145    -0.8694154     1.2174271
H           4.9351594    -1.9203766     1.4509547
C           3.6124894    -0.4759917     0.5880463
C           3.4144833     0.8809451     0.2918422
H           2.4829934     1.2287585    -0.1476248
C           4.3924802     1.8227125     0.6108690
H           4.2231123     2.8719581     0.3859035
O           2.7000779    -2.6755415     0.7708336
C          -0.9298431    -3.4236299    -1.4687546
H          -1.5190664    -4.3211788    -1.3458948
N           0.1340109    -3.1392546    -0.6139334
C           0.5888429    -2.0134079    -1.0642459
O          -0.0739782    -1.5064674    -2.1421480
C          -1.0627943    -2.4418211    -2.3890233
H          -1.7212656    -2.2343180    -3.2161553
22
075_C10H8N2O2_0-2-9-10 (30,) energy =    -645.8207413
N           1.6560077    -1.2374093    -0.6453639
H           1.8534207    -0.4381752    -1.2316273
C           2.5629942    -1.5464914     0.3724709
C           5.5823299     1.4091911     1.1727059
H           6.3560186     2.1419126     1.3853928
C           5.8194689     0.0516168     1.4054184
H           6.7785819    -0.2734208     1.7988459
C           4.8257279    -0.8866648     1.1395803
H           4.9839067    -1.9430204     1.3307094
C           3.5904789    -0.4793203     0.6171579
C           3.3518152     0.8855141     0.4006630
H           2.3804596     1.2272490     0.0517471
C           4.3450968     1.8250525     0.6783556
H           4.1483191     2.8813755     0.5178243
O           2.5409156    -2.5949548     0.9868222
C          -0.9712441    -3.3784288    -1.4481150
H          -1.6230220    -4.2238770    -1.2800153
N           0.0486519    -3.0669331    -0.5502071
C           0.6023620    -2.0206113    -1.0754887
O           0.0479841    -1.5926964    -2.2447027
C          -0.9791203    -2.4918790    -2.4691602
H          -1.5654703    -2.3351654    -3.3593388
22
075_C10H8N2O2_0-2-9-10 (45,) energy =    -645.8195976
N           1.6894580    -1.2674373    -0.6762692
H           1.9561025    -0.5188999    -1.3014205
C           2.4891427    -1.4968108     0.4468305
C           5.5886243     1.3996622     1.1375044
H           6.3774621     2.1217619     1.3298689
C           5.8389193     0.0327346     1.2890241
H           6.8224324    -0.3088997     1.5994628
C           4.8260288    -0.8937133     1.0539220
H           4.9959567    -1.9564460     1.1949647
C           3.5618980    -0.4616736     0.6312826
C           3.3083954     0.9106882     0.5010755
H           2.3150429     1.2580514     0.2272073
C           4.3206213     1.8379071     0.7530903
H           4.1153546     2.9006752     0.6592004
O           2.3656985    -2.4627353     1.1725676
C          -1.0059620    -3.3335401    -1.4477136
H          -1.7099574    -4.1287542    -1.2480387
N          -0.0202295    -2.9962073    -0.5213042
C           0.6149919    -2.0263576    -1.0986131
O           0.1480977    -1.6738946    -2.3292730
C          -0.9115546    -2.5386600    -2.5375797
H          -1.4399551    -2.4308130    -3.4702777
22
075_C10H8N2O2_0-2-9-10 (60,) energy =    -645.8174421
N           1.7287663    -1.3241261    -0.6979887
H           2.0662888    -0.6401963    -1.3621468
C           2.4100190    -1.4402340     0.5160172
C           5.6061597     1.3722818     1.1141329
H           6.4158833     2.0756593     1.2881730
C           5.8489619    -0.0028124     1.1776249
H           6.8467769    -0.3694934     1.4020453
C           4.8101083    -0.9069711     0.9673362
H           4.9812343    -1.9763810     1.0456064
C           3.5269732    -0.4406927     0.6535377
C           3.2814947     0.9378878     0.6125764
H           2.2770624     1.3040298     0.4139878
C           4.3207381     1.8416461     0.8410953
H           4.1234810     2.9097754     0.8144807
O           2.1703457    -2.2922802     1.3460637
C          -0.9973855    -3.3493858    -1.4710670
H          -1.7355824    -4.1092150    -1.2576655
N          -0.0453839    -2.9847831    -0.5197661
C           0.6466209    -2.0713488    -1.1230928
O           0.2503501    -1.7829780    -2.3942961
C          -0.8251826    -2.6282375    -2.6018572
H          -1.3034889    -2.5650670    -3.5651838
22
075_C10H8N2O2_0-2-9-10 (75,) energy =    -645.8151218
N           1.7356163    -1.3316820    -0.6840394
H           2.1535120    -0.7338292    -1.3847345
C           2.3071359    -1.3307466     0.5895461
C           5.6330847     1.3552711     1.0843727
H           6.4738063     2.0277624     1.2312880
C           5.8443608    -0.0244103     1.0231192
H           6.8485882    -0.4267801     1.1238764
C           4.7666882    -0.8905656     0.8438061
H           4.9223212    -1.9654385     0.8206012
C           3.4721056    -0.3771863     0.6972344
C           3.2606623     1.0048249     0.7746641
H           2.2527785     1.4038360     0.6918742
C           4.3405354     1.8683230     0.9670103
H           4.1704084     2.9395756     1.0308558
O           1.9417672    -2.0485451     1.4958486
C          -1.0144336    -3.3240558    -1.4608356
H          -1.8033947    -4.0253940    -1.2295915
N          -0.1261874    -2.8902366    -0.4773283
C           0.6556771    -2.0791804    -1.1160878
O           0.3782064    -1.9222829    -2.4404756
C          -0.7164592    -2.7432875    -2.6450065
H          -1.1119579    -2.7711136    -3.6467852
22
075_C10H8N2O2_0-2-9-10 (90,) energy =    -645.8139765
N           1.7575256    -1.3561278    -0.6673075
H           2.2729984    -0.8687304    -1.3882740
C           2.1995264    -1.2159114     0.6488897
C           5.6537028     1.3259192     1.0493296
H           6.5252354     1.9644437     1.1647473
C           5.8146793    -0.0485700     0.8635786
H           6.8104612    -0.4824491     0.8355708
C           4.6970544    -0.8708696     0.7168341
H           4.8207965    -1.9421864     0.5825709
C           3.4113478    -0.3183715     0.7540750
C           3.2518076     1.0594004     0.9436430
H           2.2535576     1.4871972     0.9845435
C           4.3720797     1.8782770     1.0908698
H           4.2431204     2.9467389     1.2404433
O           1.6755282    -1.7545615     1.5998323
C          -0.9995747    -3.3257032    -1.4768498
H          -1.8278256    -3.9805027    -1.2465535
N          -0.1691916    -2.8349463    -0.4697453
C           0.6846189    -2.1053525    -1.1144787
O           0.5094004    -2.0563902    -2.4644604
C          -0.5958686    -2.8601193    -2.6803911
H          -0.9175690    -2.9649672    -3.7032680
22
075_C10H8N2O2_0-2-9-10 (105,) energy =    -645.8148603
N           1.7927381    -1.3828144    -0.6561123
H           2.4061134    -1.0151927    -1.3712961
C           2.1005092    -1.0890931     0.6735925
C           5.6637401     1.3038617     1.0166743
H           6.5599446     1.9117382     1.1057453
C           5.7679308    -0.0540156     0.7105304
H           6.7446518    -0.5067845     0.5634643
C           4.6165832    -0.8340293     0.5897833
H           4.6979723    -1.8911959     0.3498986
C           3.3564367    -0.2606315     0.7980092
C           3.2541628     1.1027079     1.0999630
H           2.2747792     1.5446149     1.2606788
C           4.4062739     1.8810539     1.2088841
H           4.3223564     2.9385329     1.4439291
O           1.4128406    -1.4206801     1.6155570
C          -0.9955688    -3.2862963    -1.5144482
H          -1.8695305    -3.8834048    -1.2966027
N          -0.2151384    -2.7533558    -0.4890725
C           0.7170686    -2.1156646    -1.1226022
O           0.6409160    -2.1685555    -2.4817147
C          -0.4841952    -2.9386149    -2.7169203
H          -0.7357920    -3.1138258    -3.7497655
22
075_C10H8N2O2_0-2-9-10 (120,) energy =    -645.8170915
N           1.8114790    -1.4188425    -0.6501843
H           2.4936607    -1.1643732    -1.3519395
C           2.0273664    -0.9743628     0.6567923
C           5.6726741     1.2793701     1.0225639
H           6.5870004     1.8594153     1.1131596
C           5.7261430    -0.0448008     0.5844452
H           6.6817158    -0.5000174     0.3390690
C           4.5506078    -0.7870105     0.4585313
H           4.5924682    -1.8192702     0.1193513
C           3.3188134    -0.2139346     0.7999839
C           3.2687950     1.1154875     1.2373518
H           2.3097901     1.5513187     1.5012995
C           4.4428359     1.8588349     1.3455858
H           4.3989376     2.8910014     1.6819763
O           1.2306042    -1.1228707     1.5598660
C          -1.0109965    -3.2700728    -1.5104254
H          -1.9290786    -3.7990471    -1.2979380
N          -0.2749223    -2.6678234    -0.4907590
C           0.7317346    -2.1451098    -1.1158448
O           0.7464522    -2.3395468    -2.4642872
C          -0.3997578    -3.0773367    -2.7010455
H          -0.5888292    -3.3501741    -3.7260151
22
075_C10H8N2O2_0-2-9-10 (135,) energy =    -645.8193430
N           1.8363601    -1.4447374    -0.6669317
H           2.5568004    -1.2811384    -1.3570887
C           1.9829339    -0.8426638     0.5859215
C           5.7016977     1.2589084     1.0696015
H           6.6333168     1.8040827     1.1941987
C           5.7111721    -0.0186735     0.5074336
H           6.6491872    -0.4744668     0.2027056
C           4.5140846    -0.7159597     0.3391048
H           4.5278660    -1.7172958    -0.0846933
C           3.3030019    -0.1454240     0.7539794
C           3.3001114     1.1339551     1.3247991
H           2.3565988     1.5601655     1.6511913
C           4.4946875     1.8343656     1.4763396
H           4.4858596     2.8292515     1.9128301
O           1.1100431    -0.8293075     1.4302460
C          -1.0224621    -3.2530429    -1.4956736
H          -1.9674571    -3.7308254    -1.2799060
N          -0.3028335    -2.5985148    -0.4969590
C           0.7454730    -2.1617268    -1.1195731
O           0.8035204    -2.4630804    -2.4471911
C          -0.3597835    -3.1773667    -2.6719755
H          -0.5196272    -3.5253433    -3.6790135
22
075_C10H8N2O2_0-2-9-10 (150,) energy =    -645.8206736
N           1.8460264    -1.4699467    -0.6770926
H           2.5916469    -1.3924834    -1.3549844
C           1.9442045    -0.7161002     0.4961076
C           5.7211431     1.2378779     1.1320330
H           6.6657684     1.7475294     1.3011866
C           5.6976165     0.0226027     0.4458238
H           6.6229217    -0.4220612     0.0902435
C           4.4848563    -0.6299238     0.2227033
H           4.4836371    -1.5924570    -0.2829482
C           3.2868380    -0.0738720     0.6939501
C           3.3203863     1.1376348     1.3978079
H           2.3872604     1.5448143     1.7733657
C           4.5305948     1.7931550     1.6090329
H           4.5473452     2.7365487     2.1476283
O           1.0190916    -0.5656178     1.2697860
C          -1.0544207    -3.2283308    -1.4682744
H          -2.0275572    -3.6462536    -1.2533340
N          -0.3501358    -2.5118438    -0.5018030
C           0.7414051    -2.1761596    -1.1126767
O           0.8423933    -2.6032058    -2.4029930
C          -0.3398213    -3.2897885    -2.6146395
H          -0.4716967    -3.7244224    -3.5916165
22
075_C10H8N2O2_0-2-9-10 (165,) energy =    -645.8207223
N           1.8632095    -1.4939964    -0.6931563
H           2.6397140    -1.5271366    -1.3383738
C           1.9296460    -0.6043028     0.3819524
C           5.7449675     1.2083172     1.2092676
H           6.6967994     1.6816304     1.4343093
C           5.7037500     0.0781601     0.3912361
H           6.6223884    -0.3373792    -0.0133124
C           4.4829660    -0.5303118     0.1002099
H           4.4839180    -1.4339083    -0.5040525
C           3.2891017    -0.0105171     0.6224478
C           3.3433029     1.1122462     1.4606751
H           2.4138517     1.4879114     1.8751184
C           4.5617147     1.7217922     1.7464454
H           4.5902918     2.5958794     2.3910162
O           0.9649087    -0.3311573     1.0701020
C          -1.0790969    -3.1941335    -1.4585520
H          -2.0833165    -3.5396609    -1.2584887
N          -0.3932627    -2.4046826    -0.5367124
C           0.7464074    -2.1903850    -1.1132925
O           0.8968446    -2.7677546    -2.3389067
C          -0.3057883    -3.4197207    -2.5446346
H          -0.4053841    -3.9573487    -3.4729815
22
075_C10H8N2O2_0-2-9-10 (180,) energy =    -645.8201458
N           1.8561054    -1.5254129    -0.6931336
H           2.7038310    -1.8111737    -1.1599278
C           1.9167766    -0.5402133     0.2910039
C           5.7460387     1.1952049     1.2432214
H           6.6978182     1.6502571     1.5033360
C           5.6898169     0.2087319     0.2575100
H           6.5957975    -0.1071579    -0.2519339
C           4.4696941    -0.3768438    -0.0785336
H           4.4726454    -1.1422529    -0.8506982
C           3.2880527     0.0170919     0.5676703
C           3.3576298     1.0092456     1.5569787
H           2.4364443     1.3032573     2.0479861
C           4.5754758     1.5936859     1.8925670
H           4.6122177     2.3607910     2.6610106
O           0.9284944    -0.1552260     0.8873918
C          -1.1559527    -3.0369450    -1.5757140
H          -2.2226383    -3.1960252    -1.5067370
N          -0.5151839    -2.1002473    -0.7657971
C           0.7258553    -2.1914213    -1.1249039
O           0.9833360    -3.1041673    -2.1047068
C          -0.2590224    -3.6446520    -2.3845883
H          -0.2886005    -4.4045562    -3.1477561
