30
216_C11H15NO2S_8-4-5-25 (-165,) energy =   -1031.5261526
C           1.0180807    -0.1385638     0.3186023
H           0.1686177    -0.1942412    -0.3692710
H           1.2683894     0.9119358     0.4912266
S           2.4069252    -0.8359881    -0.6120877
N           3.6388452    -0.6938707     0.5958892
C           4.9800536    -1.0837268     0.0775276
H           4.9539277    -2.0940651    -0.3576888
H           5.6120494    -1.1428788     0.9717838
C           3.2643641    -1.4915432     1.7959609
C           2.0329651    -0.9170442     2.5033141
H           1.8446697    -1.5093726     3.4068251
C           0.7808224    -0.9131122     1.6167764
H          -0.0625906    -0.4569739     2.1487443
H           0.4903032    -1.9404215     1.3686339
H           2.2603487     0.1066116     2.8274612
H           4.1237462    -1.4408262     2.4726983
H           3.1084928    -2.5490773     1.5347373
O           2.1194064    -2.2586276    -0.8724024
O           2.7332622     0.0531802    -1.7264465
C           6.8895318     1.6636651    -2.6532284
H           7.3874155     2.3512195    -3.3318536
C           6.7614148     0.3164223    -2.9892005
H           7.1554861    -0.0513768    -3.9328591
C           6.1171481    -0.5636959    -2.1173864
H           6.0091244    -1.6113079    -2.3884203
C           5.5978500    -0.1089747    -0.9027026
C           5.7343179     1.2447291    -0.5702647
H           5.3248601     1.6052437     0.3697738
C           6.3713466     2.1263499    -1.4404634
H           6.4660967     3.1757156    -1.1731522
30
216_C11H15NO2S_8-4-5-25 (-150,) energy =   -1031.5269217
C           1.0295039    -0.1509430     0.2558663
H           0.1418501    -0.2506906    -0.3764947
H           1.3269032     0.9007824     0.2918916
S           2.3432489    -1.0156513    -0.6400633
N           3.6261122    -0.7878757     0.4847473
C           4.9367977    -1.1996324    -0.0858858
H           4.8545570    -2.1446879    -0.6414558
H           5.5711965    -1.4107888     0.7831321
C           3.3047329    -1.4218061     1.7892057
C           2.1264660    -0.7199219     2.4740804
H           1.9564012    -1.1955680     3.4474472
C           0.8341085    -0.7631453     1.6464005
H           0.0350784    -0.2158568     2.1605259
H           0.4948296    -1.7988571     1.5307405
H           2.4062544     0.3238517     2.6665403
H           4.1992004    -1.3129215     2.4108618
H           3.1061075    -2.4979721     1.6733548
O           1.9776518    -2.4417940    -0.7154051
O           2.6800665    -0.2902529    -1.8650096
C           6.9686754     1.7849407    -2.4595289
H           7.4956690     2.5301964    -3.0494132
C           6.8721657     0.4704419    -2.9156674
H           7.3191079     0.1867875    -3.8648397
C           6.1892695    -0.4839335    -2.1593773
H           6.1038894    -1.5042662    -2.5258805
C           5.6011904    -0.1384651    -0.9397463
C           5.7025576     1.1830316    -0.4885367
H           5.2336686     1.4601204     0.4517642
C           6.3785937     2.1396489    -1.2435839
H           6.4460733     3.1632479    -0.8837625
30
216_C11H15NO2S_8-4-5-25 (-135,) energy =   -1031.5269136
C           1.0066456    -0.1975916     0.2040348
H           0.0799604    -0.3537332    -0.3567348
H           1.3253471     0.8421991     0.0906803
S           2.2515458    -1.2045148    -0.6392853
N           3.5847892    -0.8795211     0.3818834
C           4.8775884    -1.2823163    -0.2294202
H           4.7586913    -2.1525131    -0.8871255
H           5.5078549    -1.6187663     0.6026481
C           3.3434777    -1.3319607     1.7723560
C           2.2168616    -0.5194843     2.4225769
H           2.0850126    -0.8667658     3.4544302
C           0.8813313    -0.6270688     1.6709146
H           0.1249924     0.0030693     2.1538667
H           0.5121178    -1.6584142     1.7043419
H           2.5282566     0.5320012     2.4700956
H           4.2756533    -1.1626304     2.3200173
H           3.1211209    -2.4091296     1.8114837
O           1.8379921    -2.6143739    -0.5234463
O           2.5637729    -0.6486276    -1.9567442
C           7.0020925     1.8709598    -2.2884318
H           7.5504330     2.6576380    -2.7998703
C           6.9054909     0.5999274    -2.8548579
H           7.3740509     0.3921337    -3.8131910
C           6.1946501    -0.4063820    -2.1982637
H           6.1092617    -1.3912892    -2.6514996
C           5.5782689    -0.1586409    -0.9683954
C           5.6769709     1.1206308    -0.4085792
H           5.1831630     1.3270868     0.5371827
C           6.3820549     2.1293278    -1.0633762
H           6.4475893     3.1189168    -0.6181893
30
216_C11H15NO2S_8-4-5-25 (-120,) energy =   -1031.5283030
C           0.9610583    -0.8949315     0.0102111
H           0.1320011    -1.4192250    -0.4748867
H           1.0711546     0.0966670    -0.4371880
S           2.4430378    -1.8250244    -0.4509589
N           3.6107809    -0.8933501     0.3896108
C           5.0110261    -1.2544995     0.0028297
H           5.0027887    -2.1645370    -0.6079860
H           5.5578705    -1.5056299     0.9170150
C           3.3557409    -0.9248073     1.8528427
C           2.0441296    -0.2140703     2.2054202
H           1.9186892    -0.2321663     3.2947384
C           0.8156207    -0.8460246     1.5352079
H          -0.0867824    -0.2735011     1.7805121
H           0.6637312    -1.8654791     1.9076602
H           2.1278766     0.8379164     1.9045268
H           4.1891952    -0.3888385     2.3173453
H           3.3618837    -1.9569561     2.2343162
O           2.3248515    -3.1793861     0.1179841
O           2.7083662    -1.6752274    -1.8865420
C           7.1049759     1.8915754    -2.1027253
H           7.6370814     2.6776969    -2.6320768
C           5.9659704     1.3109194    -2.6675132
H           5.6120357     1.6440327    -3.6398458
C           5.2800821     0.3004670    -1.9952088
H           4.3964531    -0.1497935    -2.4361630
C           5.7243439    -0.1428987    -0.7414790
C           6.8657554     0.4443709    -0.1838215
H           7.2226900     0.1053098     0.7868774
C           7.5554715     1.4550463    -0.8575419
H           8.4403595     1.8986487    -0.4084996
30
216_C11H15NO2S_8-4-5-25 (-105,) energy =   -1031.5303026
C           0.9555283    -1.0340437    -0.0027496
H           0.1068422    -1.6128694    -0.3799320
H           1.0455645    -0.1090185    -0.5786078
S           2.4188016    -2.0230909    -0.3994115
N           3.6081216    -1.0035493     0.2824536
C           4.9945925    -1.3644785    -0.1253218
H           4.9466049    -2.1841235    -0.8490023
H           5.5435426    -1.7412801     0.7455914
C           3.4204683    -0.8225112     1.7409400
C           2.1198236    -0.0705442     2.0445367
H           2.0327322     0.0557717     3.1304146
C           0.8716151    -0.7872070     1.5083523
H          -0.0251843    -0.1903036     1.7128787
H           0.7412557    -1.7500849     2.0155340
H           2.1870938     0.9322748     1.6041127
H           4.2722505    -0.2272428     2.0848125
H           3.4504820    -1.7903201     2.2645154
O           2.3095133    -3.3006348     0.3269196
O           2.6483359    -2.0362515    -1.8495470
C           7.0646411     1.9705751    -1.9342558
H           7.5853328     2.8061629    -2.3945348
C           5.9010182     1.4611988    -2.5192957
H           5.5176430     1.8987734    -3.4375097
C           5.2312064     0.3892001    -1.9333924
H           4.3286636    -0.0105999    -2.3875866
C           5.7158749    -0.1885323    -0.7513590
C           6.8804900     0.3256946    -0.1733870
H           7.2681026    -0.1189696     0.7411989
C           7.5544586     1.4002644    -0.7602226
H           8.4584405     1.7890609    -0.2986883
30
216_C11H15NO2S_8-4-5-25 (-90,) energy =   -1031.5319365
C           0.8933361    -1.1912439     0.1271019
H           0.0500040    -1.8530828    -0.0929336
H           0.8898013    -0.3572879    -0.5799890
S           2.3693153    -2.1693443    -0.2490891
N           3.5571471    -1.0217846     0.1918497
C           4.9252785    -1.4024284    -0.2414443
H           4.8256147    -2.1368649    -1.0461458
H           5.4673295    -1.8877621     0.5812319
C           3.4662023    -0.6252087     1.6150109
C           2.1552561     0.1115150     1.9092877
H           2.1438282     0.3981467     2.9676626
C           0.9108637    -0.7295563     1.5889650
H           0.0002654    -0.1494565     1.7804680
H           0.8739690    -1.6123747     2.2376523
H           2.1361504     1.0378806     1.3212198
H           4.3111900     0.0473730     1.7946680
H           3.5856438    -1.4998669     2.2732993
O           2.3782059    -3.3376152     0.6490171
O           2.4870678    -2.3688346    -1.6984024
C           7.0982780     2.0136188    -1.7525658
H           7.6442414     2.8696254    -2.1401784
C           5.9088939     1.6047705    -2.3645564
H           5.5309253     2.1413297    -3.2309600
C           5.2077350     0.5074031    -1.8703507
H           4.2831721     0.1863020    -2.3429390
C           5.6858428    -0.1985934    -0.7574456
C           6.8750451     0.2168358    -0.1510736
H           7.2568526    -0.3271951     0.7105164
C           7.5808083     1.3176075    -0.6452570
H           8.5040984     1.6286169    -0.1635558
30
216_C11H15NO2S_8-4-5-25 (-75,) energy =   -1031.5328773
C           0.8756887    -1.4021193     0.1830803
H           0.0678273    -2.1370260     0.1128454
H           0.7828694    -0.6865419    -0.6384406
S           2.3930333    -2.3384150    -0.1305398
N           3.5223955    -1.0683966     0.0688028
C           4.8832976    -1.4296075    -0.3908000
H           4.7608051    -2.0841434    -1.2590189
H           5.4221731    -1.9989082     0.3808814
C           3.4753990    -0.4755539     1.4253031
C           2.1360403     0.2230887     1.6809470
H           2.1555560     0.6629661     2.6852304
C           0.9330434    -0.7237498     1.5568596
H          -0.0022996    -0.1720177     1.7095091
H           0.9808308    -1.4985184     2.3307483
H           2.0310083     1.0494674     0.9664056
H           4.2865153     0.2575154     1.4638557
H           3.6750842    -1.2397527     2.1924976
O           2.5279831    -3.3504560     0.9317440
O           2.4491539    -2.7499168    -1.5374064
C           7.1611794     2.0544878    -1.5599636
H           7.7362712     2.9256567    -1.8621645
C           5.9090699     1.8073771    -2.1310064
H           5.5101290     2.4856143    -2.8808268
C           5.1710732     0.6901099    -1.7455465
H           4.1967422     0.4968870    -2.1858982
C           5.6732887    -0.1974111    -0.7833960
C           6.9243412     0.0600585    -0.2138101
H           7.3232966    -0.6211820     0.5347372
C           7.6677349     1.1782436    -0.6009974
H           8.6388729     1.3636631    -0.1497708
30
216_C11H15NO2S_8-4-5-25 (-60,) energy =   -1031.5321986
C           0.8200428    -1.5183842     0.3766012
H           0.0407157    -2.2821062     0.4606754
H           0.6509153    -0.9294454    -0.5289588
S           2.3559524    -2.4371290     0.1046476
N           3.4403077    -1.1208244     0.0635152
C           4.7657891    -1.4789175    -0.4964038
H           4.5719342    -2.0557212    -1.4048527
H           5.3247304    -2.1274712     0.1954435
C           3.4505029    -0.3417734     1.3225529
C           2.0979683     0.3405549     1.5560818
H           2.1534840     0.9186752     2.4863105
C           0.9286131    -0.6519994     1.6371935
H          -0.0177881    -0.1143308     1.7706061
H           1.0515772    -1.3093076     2.5057255
H           1.9214215     1.0534536     0.7404525
H           4.2303518     0.4152160     1.2110551
H           3.7208481    -0.9801333     2.1780239
O           2.5858500    -3.2846149     1.2877118
O           2.3561983    -3.0401083    -1.2323613
C           7.1481003     1.9979195    -1.4596284
H           7.7507155     2.8664881    -1.7113357
C           5.8797363     1.8355236    -2.0247415
H           5.4950296     2.5773826    -2.7197206
C           5.1083562     0.7198115    -1.7051188
H           4.1222411     0.5917741    -2.1437211
C           5.5906206    -0.2490416    -0.8130009
C           6.8587644    -0.0756201    -0.2491306
H           7.2425182    -0.8203037     0.4445876
C           7.6361977     1.0396403    -0.5719129
H           8.6204549     1.1582648    -0.1267574
30
216_C11H15NO2S_8-4-5-25 (-45,) energy =   -1031.5299840
C           0.8304165    -1.6579192     0.5338315
H           0.1111936    -2.4566799     0.7396926
H           0.5593500    -1.1615759    -0.4020005
S           2.4012379    -2.5020457     0.2226630
N           3.3969916    -1.1410480     0.0056108
C           4.6742858    -1.4711999    -0.6851695
H           4.3983198    -1.9201921    -1.6422632
H           5.2412187    -2.2245884    -0.1180537
C           3.4419336    -0.2518154     1.1873434
C           2.0649557     0.3675493     1.4549102
H           2.1445057     1.0307658     2.3247803
C           0.9692648    -0.6788688     1.7056098
H           0.0020136    -0.1863542     1.8621258
H           1.1926862    -1.2480732     2.6153895
H           1.7894665     0.9912073     0.5946519
H           4.1598264     0.5378696     0.9600162
H           3.8058839    -0.7893579     2.0769374
O           2.7615433    -3.2385627     1.4468851
O           2.3517043    -3.2095272    -1.0611382
C           7.1962089     1.9805881    -1.3204442
H           7.8331608     2.8448301    -1.4884696
C           5.9610942     1.8833880    -1.9677415
H           5.6365728     2.6709891    -2.6427233
C           5.1467675     0.7721983    -1.7562278
H           4.1873663     0.6944688    -2.2618243
C           5.5506342    -0.2560206    -0.8915289
C           6.7877654    -0.1478385    -0.2473087
H           7.1123653    -0.9402646     0.4230438
C           7.6085144     0.9622532    -0.4611617
H           8.5681764     1.0291438     0.0443141
30
216_C11H15NO2S_8-4-5-25 (-30,) energy =   -1031.5273199
C           0.8325345    -1.8521602     0.6133001
H           0.1975320    -2.6924678     0.9104622
H           0.4614606    -1.4349576    -0.3268589
S           2.4460912    -2.5828864     0.2395930
N           3.3132456    -1.1672704    -0.1085920
C           4.5409107    -1.4397694    -0.9198065
H           4.1984859    -1.7327146    -1.9148713
H           5.0942355    -2.2911397    -0.5001827
C           3.3570246    -0.2072419     1.0157314
C           1.9508527     0.3151832     1.3358123
H           2.0272860     1.0361034     2.1589228
C           0.9631883    -0.7969025     1.7177382
H          -0.0296345    -0.3732142     1.9115515
H           1.2893545    -1.2904437     2.6406045
H           1.5725023     0.8590901     0.4605849
H           3.9903225     0.6229856     0.7013461
H           3.8151133    -0.6564168     1.9106427
O           2.9400605    -3.2235872     1.4712930
O           2.3771982    -3.3597799    -1.0023912
C           7.2370049     1.9271783    -1.1807083
H           7.9185380     2.7704160    -1.2534910
C           6.0669548     1.9034629    -1.9439826
H           5.8369171     2.7272448    -2.6144730
C           5.1969638     0.8173343    -1.8545709
H           4.2896485     0.7968975    -2.4537830
C           5.4789993    -0.2578268    -0.9993361
C           6.6550320    -0.2238094    -0.2405549
H           6.8883118    -1.0550951     0.4205801
C           7.5299464     0.8606679    -0.3298837
H           8.4409334     0.8693560     0.2624866
30
216_C11H15NO2S_8-4-5-25 (-15,) energy =   -1031.5253461
C           0.8748585    -1.9040249     0.8026139
H           0.3484256    -2.7725640     1.2103201
H           0.3857963    -1.5881926    -0.1229339
S           2.5095098    -2.5184724     0.3263429
N           3.2110903    -1.0643459    -0.1935819
C           4.3824546    -1.2993551    -1.1053228
H           3.9808661    -1.4286369    -2.1137428
H           4.8804111    -2.2377758    -0.8352997
C           3.2666394    -0.0288966     0.8621921
C           1.8518503     0.3945414     1.2780304
H           1.9349408     1.1764227     2.0428438
C           1.0060078    -0.7661592     1.8212199
H           0.0002429    -0.4149867     2.0815350
H           1.4565306    -1.1639070     2.7380467
H           1.3506350     0.8403789     0.4091410
H           3.7918071     0.8289451     0.4406312
H           3.8394078    -0.3724831     1.7369575
O           3.1664246    -3.0254046     1.5446894
O           2.4037317    -3.3871334    -0.8505287
C           7.3443449     1.8469141    -1.0718447
H           8.0935643     2.6339839    -1.0692517
C           6.2608595     1.9138858    -1.9498122
H           6.1645073     2.7521619    -2.6346661
C           5.3033421     0.8986159    -1.9557305
H           4.4639546     0.9485435    -2.6455739
C           5.4122371    -0.1940818    -1.0850099
C           6.5064840    -0.2524743    -0.2114680
H           6.6075945    -1.1005908     0.4617751
C           7.4657703     0.7604751    -0.2029897
H           8.3109846     0.6979043     0.4771479
30
216_C11H15NO2S_8-4-5-25 (0,) energy =   -1031.5252428
C           0.9765754    -2.0254362     1.0577391
H           0.6092494    -2.9104749     1.5863861
H           0.3545605    -1.8491835     0.1759555
S           2.6117206    -2.4884113     0.4357502
N           3.0529872    -1.0126089    -0.2954810
C           4.1855497    -1.1938598    -1.2725183
H           3.7518307    -1.1332908    -2.2758589
H           4.5900389    -2.2045072    -1.1691900
C           3.1125334     0.0946236     0.6897943
C           1.7151810     0.3989273     1.2444619
H           1.7940905     1.2458789     1.9369406
C           1.0777142    -0.7963346     1.9674164
H           0.0707456    -0.5380704     2.3165723
H           1.6688148    -1.0603814     2.8519634
H           1.0698066     0.7151302     0.4148331
H           3.4905558     0.9704586     0.1590622
H           3.8151871    -0.1251595     1.5059857
O           3.4686071    -2.7868216     1.5988286
O           2.4827763    -3.4831453    -0.6342311
C           7.4182024     1.6515552    -0.9179523
H           8.2355847     2.3624867    -0.8322229
C           6.4496853     1.8140164    -1.9091063
H           6.5104786     2.6511090    -2.5994890
C           5.4016209     0.8974356    -2.0191904
H           4.6505937     1.0229601    -2.7959808
C           5.3086802    -0.1905842    -1.1432725
C           6.2911286    -0.3476188    -0.1543016
H           6.2297724    -1.1942999     0.5258838
C           7.3367112     0.5673981    -0.0400216
H           8.0921384     0.4310978     0.7292261
30
216_C11H15NO2S_8-4-5-25 (15,) energy =   -1031.5275069
C           1.1269499    -2.1676326     1.1308218
H           0.9034880    -3.0580658     1.7264881
H           0.4360193    -2.1182455     0.2848302
S           2.7656810    -2.4679301     0.4236202
N           2.9634379    -0.9924671    -0.4195943
C           4.0578680    -1.0669025    -1.4450124
H           3.5995624    -0.8141518    -2.4082397
H           4.3788504    -2.1085001    -1.5232584
C           2.9577911     0.1628017     0.5120064
C           1.5734262     0.3358696     1.1488241
H           1.5955314     1.2221177     1.7946009
C           1.1313837    -0.8846797     1.9694598
H           0.1228120    -0.7289749     2.3708348
H           1.8016444    -1.0257394     2.8251759
H           0.8423472     0.5303328     0.3535728
H           3.1997122     1.0466871    -0.0837336
H           3.7341941     0.0655481     1.2823780
O           3.7233395    -2.5865520     1.5406853
O           2.6962004    -3.5390815    -0.5763440
C           7.4730588     1.5090379    -0.8185678
H           8.3361512     2.1516652    -0.6665882
C           6.5740263     1.7764601    -1.8508894
H           6.7334125     2.6276415    -2.5075798
C           5.4656445     0.9482560    -2.0438677
H           4.7682763     1.1569312    -2.8524602
C           5.2449833    -0.1559570    -1.2133085
C           6.1572797    -0.4188958    -0.1795954
H           5.9912439    -1.2735934     0.4723062
C           7.2611218     0.4091582     0.0177066
H           7.9604530     0.1933915     0.8211413
30
216_C11H15NO2S_8-4-5-25 (30,) energy =   -1031.5301424
C           1.2411045    -2.2148265     1.1966894
H           1.1025396    -3.0961462     1.8304429
H           0.5374302    -2.2578057     0.3609208
S           2.8912717    -2.4009043     0.4763095
N           2.9472147    -0.9452180    -0.4120113
C           3.9710139    -0.9247350    -1.4938095
H           3.4731539    -0.5256390    -2.3861479
H           4.2204166    -1.9650863    -1.7197683
C           2.8415364     0.2495071     0.4571099
C           1.4579551     0.3207576     1.1144541
H           1.4074470     1.2289723     1.7272365
C           1.1447229    -0.9041085     1.9868811
H           0.1332542    -0.8251579     2.4031740
H           1.8394453    -0.9514868     2.8333389
H           0.6987217     0.4161881     0.3275258
H           2.9886713     1.1188987    -0.1904463
H           3.6380260     0.2688551     1.2128795
O           3.8597758    -2.4071216     1.5902610
O           2.9048634    -3.5033643    -0.4917009
C           7.5536303     1.4004321    -0.7943945
H           8.4571521     1.9807595    -0.6271478
C           6.6915047     1.7310443    -1.8394652
H           6.9189532     2.5700618    -2.4918407
C           5.5301142     0.9834858    -2.0483685
H           4.8605159     1.2444556    -2.8654426
C           5.2192658    -0.1042652    -1.2246797
C           6.0937425    -0.4307468    -0.1764827
H           5.8594819    -1.2668486     0.4776857
C           7.2496778     0.3189910     0.0372236
H           7.9176209     0.0560310     0.8532745
30
216_C11H15NO2S_8-4-5-25 (45,) energy =   -1031.5313493
C           1.3000978    -2.2819853     1.2155816
H           1.2104163    -3.1599457     1.8626421
H           0.6192832    -2.3879546     0.3665676
S           2.9758127    -2.3583242     0.5343038
N           2.9520347    -0.9124953    -0.3524090
C           3.8905520    -0.8044790    -1.4892200
H           3.3527879    -0.2831899    -2.2909776
H           4.0677200    -1.8246010    -1.8432460
C           2.7204393     0.2944196     0.4683763
C           1.3229030     0.2650803     1.0991864
H           1.1873445     1.1740531     1.6977925
C           1.0914968    -0.9699468     1.9832307
H           0.0702784    -0.9633881     2.3827233
H           1.7733463    -0.9525889     2.8412911
H           0.5737577     0.2884570     0.2971942
H           2.8066444     1.1501913    -0.2082556
H           3.4969216     0.4091686     1.2371477
O           3.9070173    -2.2969996     1.6769556
O           3.0912397    -3.4580232    -0.4301084
C           7.6489001     1.2490555    -0.8356114
H           8.5947953     1.7620238    -0.6830553
C           6.8026392     1.6318481    -1.8759607
H           7.0837621     2.4457926    -2.5391752
C           5.5864175     0.9717312    -2.0628695
H           4.9289436     1.2764784    -2.8748837
C           5.2026960    -0.0821403    -1.2248177
C           6.0598445    -0.4596100    -0.1804664
H           5.7733285    -1.2633499     0.4921005
C           7.2714916     0.2040787     0.0115478
H           7.9243435    -0.0982071     0.8262144
30
216_C11H15NO2S_8-4-5-25 (60,) energy =   -1031.5308364
C           1.3689496    -2.3470929     1.1971398
H           1.3109285    -3.2436808     1.8218222
H           0.7385069    -2.4809501     0.3136530
S           3.0767030    -2.2853592     0.5969954
N           3.0104159    -0.8175325    -0.2277865
C           3.8400504    -0.6193565    -1.4229805
H           3.2594540     0.0047548    -2.1137125
H           3.9379546    -1.6026553    -1.8948069
C           2.6302118     0.3518526     0.5861637
C           1.2066205     0.1993338     1.1372259
H           0.9672000     1.0794666     1.7464092
C           1.0267200    -1.0723397     1.9806355
H          -0.0101714    -1.1509760     2.3287084
H           1.6629308    -1.0263617     2.8721299
H           0.5020183     0.1845093     0.2954159
H           2.6853850     1.2219976    -0.0749995
H           3.3486829     0.5180762     1.4009743
O           3.9389891    -2.2052302     1.7901131
O           3.3123975    -3.3353269    -0.4000894
C           7.7763610     1.1343362    -0.9582000
H           8.7667588     1.5700873    -0.8565167
C           6.9582400     1.4914496    -2.0306176
H           7.3058104     2.2092739    -2.7691635
C           5.6849097     0.9332265    -2.1505542
H           5.0497861     1.2213064    -2.9863496
C           5.2137433     0.0043577    -1.2138204
C           6.0401433    -0.3459980    -0.1379649
H           5.6913970    -1.0513105     0.6108136
C           7.3109705     0.2177351    -0.0134764
H           7.9395547    -0.0629969     0.8275876
30
216_C11H15NO2S_8-4-5-25 (75,) energy =   -1031.5303781
C           1.1936207    -2.1515024     0.6959939
H           0.6448532    -2.9978815     1.1200388
H           1.1097254    -2.1898891    -0.3954084
S           2.9477659    -2.4282116     1.0841219
N           3.6794925    -1.0067710     0.5293100
C           4.0623628    -0.9371165    -0.8933986
H           3.2542247    -0.5182027    -1.5129385
H           4.2292779    -1.9653187    -1.2244869
C           3.0725452     0.2110429     1.1141406
C           1.5808434     0.3779312     0.7772968
H           1.2183627     1.3063073     1.2352978
C           0.7280682    -0.8045285     1.2711755
H          -0.3220987    -0.6552201     0.9928942
H           0.7661701    -0.8591456     2.3652879
H           1.4543333     0.4962292    -0.3077936
H           3.6575443     1.0591362     0.7458417
H           3.2147793     0.1613732     2.1975357
O           3.0702174    -2.4261391     2.5446115
O           3.4559595    -3.5418723     0.2789090
C           7.6830748     1.3506396    -1.4978065
H           8.5961692     1.9184732    -1.6553274
C           6.5383020     1.6449950    -2.2372721
H           6.5530997     2.4448968    -2.9728891
C           5.3654026     0.9146341    -2.0282738
H           4.4733473     1.1481524    -2.6062103
C           5.3257568    -0.1186188    -1.0868438
C           6.4801505    -0.4056258    -0.3455284
H           6.4493344    -1.1977887     0.3972027
C           7.6499086     0.3234583    -0.5497910
H           8.5387531     0.0902063     0.0305114
30
216_C11H15NO2S_8-4-5-25 (90,) energy =   -1031.5294139
C           1.3182986    -2.2587230     0.7522211
H           0.8961749    -3.1555263     1.2157128
H           1.2360458    -2.3527401    -0.3359082
S           3.0958231    -2.2629274     1.1324448
N           3.6106323    -0.7776775     0.5126284
C           3.9823449    -0.7071089    -0.9156620
H           3.2099020    -0.1780538    -1.4910261
H           4.0301498    -1.7317094    -1.2942778
C           2.8427794     0.3668592     1.0520140
C           1.3409025     0.3028936     0.7257610
H           0.8498491     1.1881003     1.1481315
C           0.6690068    -0.9678672     1.2771084
H          -0.3929435    -0.9809347     1.0039086
H           0.7194387    -0.9702737     2.3720281
H           1.1944045     0.3540442    -0.3622884
H           3.2997092     1.2719506     0.6396550
H           2.9975819     0.3894298     2.1346833
O           3.2227245    -2.1832649     2.5904827
O           3.7606765    -3.3211846     0.3667892
C           7.8327791     1.1669886    -1.5128118
H           8.8033630     1.6312350    -1.6660773
C           6.7052920     1.6704647    -2.1599633
H           6.7908617     2.5305732    -2.8188969
C           5.4590479     1.0711196    -1.9570069
H           4.5812552     1.4665173    -2.4647401
C           5.3283791    -0.0347318    -1.1119800
C           6.4664605    -0.5339182    -0.4644244
H           6.3672877    -1.3889208     0.1986675
C           7.7094242     0.0625499    -0.6638030
H           8.5852628    -0.3347197    -0.1575897
30
216_C11H15NO2S_8-4-5-25 (105,) energy =   -1031.5282073
C           1.4703897    -2.3431926     0.8007872
H           1.1693768    -3.2734360     1.2920091
H           1.4141478    -2.4840996    -0.2838862
S           3.2287252    -2.0930665     1.1916997
N           3.5443052    -0.5742949     0.5240795
C           3.9091891    -0.5117580    -0.9118142
H           3.1878756     0.1242346    -1.4389436
H           3.8286915    -1.5163363    -1.3376346
C           2.6218406     0.4679503     1.0278509
C           1.1465463     0.1954033     0.6899087
H           0.5354885     1.0188306     1.0795675
C           0.6450536    -1.1367317     1.2760560
H          -0.4015996    -1.3026576     0.9941105
H           0.6804506    -1.0969546     2.3709239
H           1.0107386     0.1932244    -0.4009576
H           2.9571239     1.4187429     0.6019448
H           2.7590564     0.5341836     2.1111534
O           3.3315523    -1.9538122     2.6470988
O           4.0333100    -3.0773683     0.4605922
C           7.9274314     0.9503315    -1.5504346
H           8.9387031     1.3138867    -1.7126840
C           6.8406281     1.6418014    -2.0834201
H           6.9990062     2.5479300    -2.6624110
C           5.5424230     1.1707754    -1.8692248
H           4.6966140     1.7130150    -2.2881188
C           5.3181569     0.0081973    -1.1259607
C           6.4160965    -0.6825105    -0.5950041
H           6.2463686    -1.5869278    -0.0174436
C           7.7108875    -0.2133890    -0.8058011
H           8.5548420    -0.7574945    -0.3899702
30
216_C11H15NO2S_8-4-5-25 (120,) energy =   -1031.5263084
C           1.6246967    -2.3683197     0.7910376
H           1.4130785    -3.3307613     1.2666074
H           1.6300030    -2.5091583    -0.2950013
S           3.3288584    -1.9336403     1.2571835
N           3.5230210    -0.3824384     0.5989414
C           3.8739229    -0.3087154    -0.8463112
H           3.2182653     0.4337896    -1.3121295
H           3.6604744    -1.2689147    -1.3302216
C           2.4542411     0.5361112     1.0653562
C           1.0326868     0.1115226     0.6626848
H           0.3251597     0.8667139     1.0265253
C           0.6498209    -1.2663093     1.2293948
H          -0.3588610    -1.5451299     0.9018317
H           0.6328688    -1.2254553     2.3246926
H           0.9433736     0.1002204    -0.4328943
H           2.6964338     1.5261410     0.6666105
H           2.5364246     0.6008567     2.1542334
O           3.3598970    -1.7866200     2.7148216
O           4.2467859    -2.8410097     0.5610127
C           7.9878507     0.7815970    -1.6350498
H           9.0192138     1.0562974    -1.8402521
C           6.9438312     1.5875658    -2.0868116
H           7.1545259     2.4958560    -2.6454142
C           5.6214991     1.2285746    -1.8160642
H           4.8107360     1.8625944    -2.1705553
C           5.3244987     0.0643454    -1.0983455
C           6.3799432    -0.7413306    -0.6491896
H           6.1621283    -1.6464583    -0.0917293
C           7.7001084    -0.3817225    -0.9160295
H           8.5093336    -1.0149627    -0.5617192
30
216_C11H15NO2S_8-4-5-25 (135,) energy =   -1031.5253508
C           2.2696740    -3.0182031     1.1243818
H           2.2784209    -3.8230011     1.8656385
H           2.4617000    -3.4518245     0.1372344
S           3.7011318    -1.9605210     1.5064903
N           3.5052891    -0.6844690     0.4078874
C           4.0756332    -0.8834616    -0.9396481
H           3.4779499    -0.2531419    -1.6103661
H           3.9488069    -1.9150081    -1.2951331
C           2.1727875    -0.0477492     0.5121345
C           1.0023901    -0.9961677     0.2054016
H           0.0616459    -0.4378790     0.2879176
C           0.9679469    -2.2037096     1.1582330
H           0.1363841    -2.8691999     0.8969843
H           0.7942817    -1.8605216     2.1848354
H           1.0719753    -1.3442627    -0.8350372
H           2.1734585     0.8081692    -0.1699522
H           2.0818874     0.3476668     1.5284478
O           3.4862947    -1.4103183     2.8478325
O           4.9282371    -2.6720959     1.1509436
C           8.2112560     0.2916173    -1.4109330
H           9.2471707     0.5919385    -1.5440018
C           7.4016802     0.9507959    -0.4837336
H           7.8064220     1.7669225     0.1091924
C           6.0732131     0.5632966    -0.3081835
H           5.4493951     1.0638656     0.4261112
C           5.5385943    -0.4916197    -1.0549186
C           6.3571042    -1.1526051    -1.9764101
H           5.9563373    -1.9849446    -2.5515612
C           7.6846855    -0.7632774    -2.1574684
H           8.3093628    -1.2919571    -2.8727163
30
216_C11H15NO2S_8-4-5-25 (150,) energy =   -1031.5247349
C           1.3491818     0.0981909     0.8953161
H           0.4068677     0.4855672     0.4962911
H           1.9141797     0.9334257     1.3221930
S           2.2982518    -0.4815018    -0.5467577
N           3.6728395    -1.1868450     0.1727271
C           4.7557676    -0.2573658     0.5647028
H           5.3932760    -0.8390648     1.2426084
H           4.3876542     0.5987977     1.1499580
C           3.2878960    -2.2094983     1.1765446
C           2.4667632    -1.6686653     2.3584356
H           2.2632546    -2.4940882     3.0516481
C           1.1390231    -1.0391227     1.9042724
H           0.5908883    -0.6424012     2.7672738
H           0.5041270    -1.8051239     1.4439765
H           3.0587261    -0.9296528     2.9164118
H           4.2164719    -2.6714249     1.5275727
H           2.7220630    -2.9807176     0.6458093
O           1.5371086    -1.5753023    -1.1572993
O           2.7292370     0.6811589    -1.3203666
C           7.2861408     1.1690184    -2.6357192
H           7.9372603     1.5252817    -3.4295540
C           6.8495526    -0.1579831    -2.6276430
H           7.1602533    -0.8379540    -3.4166371
C           6.0126327    -0.6160217    -1.6113364
H           5.6623910    -1.6441787    -1.6131871
C           5.5945919     0.2490036    -0.5933614
C           6.0305304     1.5765998    -0.6107860
H           5.7011517     2.2608371     0.1682816
C           6.8739489     2.0359385    -1.6237040
H           7.1990623     3.0730271    -1.6262785
30
216_C11H15NO2S_8-4-5-25 (165,) energy =   -1031.5228772
C           1.4975238     0.1334608     0.7609699
H           0.5936482     0.5602848     0.3159813
H           2.1316946     0.9547557     1.1109766
S           2.3941076    -0.6630630    -0.6083930
N           3.7250905    -1.3945478     0.1819903
C           4.8557958    -0.5172135     0.5726333
H           5.5375935    -1.1836395     1.1163098
H           4.5519823     0.2618399     1.2898969
C           3.2398393    -2.2837608     1.2717198
C           2.4566244    -1.5766964     2.3909516
H           2.1807531    -2.3246663     3.1443182
C           1.1882152    -0.8804096     1.8702283
H           0.6768382    -0.3590245     2.6883469
H           0.4895790    -1.6282185     1.4777103
H           3.1012763    -0.8468381     2.8992616
H           4.1237957    -2.7852686     1.6804849
H           2.6183705    -3.0517323     0.8036119
O           1.5581459    -1.7657133    -1.0929446
O           2.8826785     0.3754376    -1.5118680
C           7.1379548     1.3158741    -2.6029357
H           7.7290084     1.7732894    -3.3918779
C           6.8077371    -0.0403805    -2.6706850
H           7.1411812    -0.6411159    -3.5128190
C           6.0501162    -0.6282362    -1.6603416
H           5.7855551    -1.6803990    -1.7185246
C           5.6026793     0.1335650    -0.5736626
C           5.9364014     1.4885723    -0.5130202
H           5.5906583     2.0907805     0.3245760
C           6.7015369     2.0790544    -1.5206264
H           6.9484215     3.1358343    -1.4617121
30
216_C11H15NO2S_8-4-5-25 (180,) energy =   -1031.5245365
C           1.0387427    -0.1103693     0.3473504
H           0.2403617    -0.1260675    -0.4012236
H           1.2080971     0.9229604     0.6629776
S           2.5227896    -0.5933497    -0.5761975
N           3.6774916    -0.5567837     0.7183082
C           5.0642781    -0.8920014     0.2744520
H           5.1148132    -1.9474263    -0.0338465
H           5.6676138    -0.7931099     1.1847697
C           3.2626216    -1.5080403     1.7881405
C           1.9653578    -1.0857315     2.4819583
H           1.7660379    -1.7882340     3.3001230
C           0.7701351    -1.0500343     1.5225616
H          -0.1334429    -0.7130485     2.0445584
H           0.5654398    -2.0553150     1.1361196
H           2.1107575    -0.0954607     2.9323400
H           4.0786252    -1.5091514     2.5189355
H           3.1766252    -2.5300704     1.3883216
O           2.3481717    -1.9779369    -1.0536463
O           2.8302208     0.4724149    -1.5293638
C           6.8678270     1.5601945    -2.7856682
H           7.3381123     2.1737439    -3.5495754
C           6.6312852     0.2067572    -3.0226402
H           6.9130311    -0.2399471    -3.9723889
C           6.0256832    -0.5792040    -2.0403119
H           5.8341775    -1.6322575    -2.2318819
C           5.6508391    -0.0220188    -0.8148900
C           5.8987624     1.3371331    -0.5822977
H           5.6079198     1.7772964     0.3683781
C           6.4984400     2.1248266    -1.5614648
H           6.6814437     3.1791304    -1.3708333
