26
014_C11H13NO_1-0-9-8 (-165,) energy =    -556.9899025
C           3.8727325     1.5309567    -0.2529144
C           3.4093986     0.2376199     0.0555413
C           2.0533968    -0.0651999    -0.0404115
C           1.1244012     0.8919529    -0.4506853
C           1.5769339     2.1698469    -0.7672160
C           2.9325991     2.4881216    -0.6752477
C           8.0049018     2.8799183    -0.4190469
C           6.9572952     3.6774788     0.3493843
C           5.5625204     3.3341786    -0.1613260
N           5.2588334     1.8866664    -0.1453198
C           6.2670471     0.9428293    -0.3512089
O           6.0447381    -0.2396564    -0.5709110
C           7.7234617     1.3935456    -0.2086937
H           4.1075659    -0.5224849     0.3682413
H           1.7242297    -1.0699103     0.2118451
H           0.0692243     0.6442811    -0.5242490
H           0.8779271     2.9340339    -1.0970668
H           3.2417668     3.4875653    -0.9541926
H           7.9478846     3.1308196    -1.4872102
H           9.0205511     3.1269568    -0.0886986
H           7.0261354     3.4526818     1.4221239
H           7.1057574     4.7578821     0.2349843
H           4.8144636     3.8306410     0.4630325
H           5.4443188     3.7247685    -1.1832655
H           8.2969269     0.7577935    -0.8888522
H           8.0238052     1.1018472     0.8082003
26
014_C11H13NO_1-0-9-8 (-150,) energy =    -556.9911023
C           3.8034788     1.7705017    -0.2553758
C           2.7536284     2.6667626     0.0041934
C           1.4314114     2.2484714    -0.1211815
C           1.1240569     0.9418342    -0.5072458
C           2.1628638     0.0506893    -0.7665187
C           3.4920174     0.4577375    -0.6391553
C           8.0422748     2.6237456     0.0676859
C           7.4164139     2.2792977    -1.2812862
C           6.1269749     1.4952318    -1.0626275
N           5.1714326     2.1889142    -0.1750344
C           5.5943245     3.0175251     0.8614805
O           4.8347250     3.4443152     1.7197925
C           7.0545532     3.4760669     0.8653317
H           2.9759672     3.6795866     0.3091570
H           0.6331549     2.9574330     0.0821535
H           0.0894226     0.6248461    -0.6038127
H           1.9470242    -0.9720200    -1.0644185
H           4.2815772    -0.2608021    -0.8296350
H           8.2678160     1.6960025     0.6116284
H           8.9923401     3.1567370    -0.0549897
H           7.2026067     3.1978188    -1.8439505
H           8.0915543     1.6712929    -1.8951385
H           5.6189758     1.3235859    -2.0162995
H           6.3770599     0.5073518    -0.6466740
H           7.3383779     3.5692830     1.9175059
H           7.0397739     4.4992498     0.4629738
26
014_C11H13NO_1-0-9-8 (-135,) energy =    -556.9910464
C           3.8026952     1.7313034    -0.2198126
C           2.7717369     2.6763746    -0.1266162
C           1.4446380     2.2753427    -0.2601467
C           1.1251848     0.9366422    -0.5005365
C           2.1497132    -0.0032011    -0.6006446
C           3.4816854     0.3894553    -0.4573041
C           8.0252402     2.5997654     0.0516726
C           7.3724132     2.3655883    -1.3093319
C           6.0966624     1.5483805    -1.1318895
N           5.1755662     2.1361944    -0.1394168
C           5.5964126     2.9272202     0.9212387
O           4.8316918     3.3106134     1.7958426
C           7.0565355     3.3834870     0.9398632
H           3.0147147     3.7142534     0.0637356
H           0.6547326     3.0176125    -0.1819741
H           0.0881343     0.6311188    -0.6083269
H           1.9177981    -1.0490232    -0.7839627
H           4.2695782    -0.3545935    -0.5216197
H           8.2630695     1.6308985     0.5123533
H           8.9725327     3.1424509    -0.0478823
H           7.1357373     3.3278286    -1.7829346
H           8.0411260     1.8241540    -1.9889802
H           5.5514938     1.4711198    -2.0778554
H           6.3696512     0.5249087    -0.8330407
H           7.3622024     3.3834738     1.9903771
H           7.0386098     4.4380941     0.6302424
26
014_C11H13NO_1-0-9-8 (-120,) energy =    -556.9904835
C           3.7985059     1.7130102    -0.2138190
C           2.7842217     2.6740538    -0.2878736
C           1.4549991     2.2753172    -0.4138217
C           1.1274160     0.9188997    -0.4830876
C           2.1388051    -0.0392491    -0.4157100
C           3.4706629     0.3552652    -0.2766129
C           8.0080313     2.5410706     0.0437312
C           7.3461732     2.4483108    -1.3304911
C           6.0519020     1.6458187    -1.2290884
N           5.1747192     2.1153509    -0.1399444
C           5.6014986     2.8405271     0.9602728
O           4.8382295     3.1659150     1.8595638
C           7.0663938     3.2768362     1.0000367
H           3.0434864     3.7255057    -0.2306049
H           0.6725559     3.0277999    -0.4632622
H           0.0902452     0.6120808    -0.5867258
H           1.8941791    -1.0970490    -0.4628874
H           4.2556000    -0.3923676    -0.2065950
H           8.2144740     1.5289747     0.4187560
H           8.9725559     3.0589726    -0.0134959
H           7.1300181     3.4571561    -1.7072923
H           8.0015963     1.9622579    -2.0628011
H           5.4829961     1.7113513    -2.1627494
H           6.2975242     0.5836790    -1.0781560
H           7.3831340     3.1910452     2.0439107
H           7.0664710     4.3517659     0.7707465
26
014_C11H13NO_1-0-9-8 (-105,) energy =    -556.9900221
C           3.7887319     1.7296272    -0.2262298
C           2.7851316     2.6628199    -0.4993537
C           1.4585120     2.2472882    -0.6094558
C           1.1303605     0.8981724    -0.4583227
C           2.1333558    -0.0342043    -0.1888159
C           3.4607446     0.3803663    -0.0703662
C           7.9977758     2.4935923     0.0235010
C           7.3215025     2.5591018    -1.3458678
C           6.0037561     1.7886792    -1.3160023
N           5.1626700     2.1499422    -0.1613819
C           5.6189097     2.7208013     1.0130539
O           4.8767052     2.9212330     1.9647374
C           7.0855746     3.1482683     1.0644686
H           3.0514673     3.7092989    -0.6122952
H           0.6806189     2.9778946    -0.8141726
H           0.0964674     0.5757570    -0.5469230
H           1.8833954    -1.0843165    -0.0636036
H           4.2444817    -0.3378486     0.1542322
H           8.1833137     1.4438019     0.2904735
H           8.9742101     2.9917588     0.0066326
H           7.1319281     3.6072842    -1.6139500
H           7.9578821     2.1342525    -2.1310768
H           5.4230685     1.9845058    -2.2245346
H           6.2098523     0.7071405    -1.2976968
H           7.4240291     2.9637482     2.0884308
H           7.0918527     4.2395230     0.9329114
26
014_C11H13NO_1-0-9-8 (-90,) energy =    -556.9900477
C           3.7754885     1.7530736    -0.2342439
C           2.7923364     2.6179908    -0.7201850
C           1.4708626     2.1827689    -0.8283700
C           1.1286762     0.8837867    -0.4486189
C           2.1111171     0.0211715     0.0421615
C           3.4330466     0.4532354     0.1482286
C           7.9962500     2.4710694    -0.0257208
C           7.2810039     2.6911989    -1.3589864
C           5.9549389     1.9354333    -1.3724072
N           5.1431823     2.1964014    -0.1702686
C           5.6528670     2.5653465     1.0625751
O           4.9536486     2.6053950     2.0653897
C           7.1177365     2.9990587     1.1121570
H           3.0693268     3.6297732    -1.0025692
H           0.7087749     2.8604407    -1.2036240
H           0.0991679     0.5458736    -0.5304635
H           1.8479674    -0.9884036     0.3460411
H           4.2017817    -0.2071650     0.5388510
H           8.1876336     1.3977848     0.1133730
H           8.9729043     2.9689863    -0.0141606
H           7.0967259     3.7637842    -1.5072781
H           7.8897099     2.3469535    -2.2034233
H           5.3576675     2.2218407    -2.2451792
H           6.1436197     0.8534320    -1.4588156
H           7.4933364     2.7062750     2.0969917
H           7.1130464     4.0982992     1.0997121
26
014_C11H13NO_1-0-9-8 (-75,) energy =    -556.9904368
C           3.7723900     1.7434832    -0.2270200
C           2.8321735     2.5346023    -0.8926696
C           1.5121842     2.0990866    -1.0163088
C           1.1240726     0.8770931    -0.4650907
C           2.0615021     0.0922103     0.2101494
C           3.3834354     0.5198954     0.3266680
C           8.0002712     2.4746794    -0.0709544
C           7.2386681     2.8181725    -1.3509963
C           5.9207027     2.0507374    -1.3962061
N           5.1383809     2.1868623    -0.1527774
C           5.6902853     2.4280747     1.0947507
O           5.0299178     2.3573735     2.1221388
C           7.1527525     2.8709379     1.1410190
H           3.1382316     3.4932461    -1.3029288
H           0.7864961     2.7199851    -1.5347009
H           0.0951590     0.5398767    -0.5562657
H           1.7634606    -0.8567037     0.6478536
H           4.1139444    -0.0806885     0.8585801
H           8.2093812     1.3959893    -0.0484103
H           8.9704021     2.9842765    -0.0388306
H           7.0399798     3.8978737    -1.3856292
H           7.8212145     2.5665344    -2.2451134
H           5.2982356     2.4072802    -2.2234140
H           6.1168055     0.9832618    -1.5851623
H           7.5622338     2.4836763     2.0785748
H           7.1370667     3.9654866     1.2422068
26
014_C11H13NO_1-0-9-8 (-60,) energy =    -556.9904647
C           3.7805651     1.7214303    -0.2074416
C           2.8882619     2.4313722    -1.0181313
C           1.5638791     2.0112402    -1.1442112
C           1.1174745     0.8843196    -0.4534531
C           2.0047898     0.1805006     0.3635349
C           3.3317093     0.5901773     0.4840594
C           8.0144197     2.4934809    -0.1097126
C           7.2063450     2.9299931    -1.3305106
C           5.9045393     2.1383742    -1.4038039
N           5.1531386     2.1395717    -0.1323103
C           5.7342115     2.3290469     1.1118165
O           5.1022777     2.2061043     2.1525922
C           7.1968353     2.7731119     1.1529306
H           3.2264588     3.3240011    -1.5372533
H           0.8805697     2.5729065    -1.7755466
H           0.0850621     0.5589609    -0.5472198
H           1.6649007    -0.6958722     0.9088766
H           4.0181956     0.0486357     1.1240287
H           8.2401771     1.4206505    -0.1851684
H           8.9770345     3.0159119    -0.0626429
H           6.9855103     4.0039990    -1.2647686
H           7.7634823     2.7696773    -2.2611177
H           5.2565448     2.5492394    -2.1828443
H           6.1190800     1.0966063    -1.6894134
H           7.6328238     2.3078696     2.0419934
H           7.1780182     3.8538161     1.3530112
26
014_C11H13NO_1-0-9-8 (-45,) energy =    -556.9895072
C           3.7834063     1.7176316    -0.2042330
C           2.9235903     2.3178184    -1.1332769
C           1.5992717     1.8944304    -1.2516710
C           1.1142229     0.8644282    -0.4475185
C           1.9688892     0.2621024     0.4778421
C           3.2938586     0.6754446     0.5974037
C           8.0263177     2.4728576    -0.1480066
C           7.1950544     3.0238251    -1.3030856
C           5.8814543     2.2570162    -1.4175947
N           5.1631087     2.1148517    -0.1329370
C           5.7661191     2.2743171     1.1073531
O           5.1529409     2.1394330     2.1582524
C           7.2418525     2.6737816     1.1480494
H           3.2703771     3.1414009    -1.7493372
H           0.9478357     2.3794170    -1.9738114
H           0.0828317     0.5354155    -0.5388073
H           1.6059453    -0.5433399     1.1107843
H           3.9471323     0.2051084     1.3202304
H           8.2241666     1.4046688    -0.3129965
H           9.0014532     2.9696043    -0.0852344
H           6.9911416     4.0901450    -1.1352077
H           7.7239729     2.9428920    -2.2600239
H           5.2282575     2.7612665    -2.1321722
H           6.0733759     1.2514592    -1.8218918
H           7.6788699     2.1272463     1.9893475
H           7.2587640     3.7345257     1.4348313
26
014_C11H13NO_1-0-9-8 (-30,) energy =    -556.9879956
C           3.7927333     1.7536235    -0.2050470
C           2.9593708     2.1964851    -1.2431439
C           1.6533192     1.7181558    -1.3651058
C           1.1534326     0.7833993    -0.4627359
C           1.9823361     0.3287208     0.5649372
C           3.2863510     0.7976876     0.6943939
C           8.0128594     2.3597204    -0.1717382
C           7.2349401     3.0870015    -1.2619987
C           5.8259463     2.5106260    -1.4028468
N           5.1578509     2.1940034    -0.1213563
C           5.7785835     2.3227077     1.1176164
O           5.1747489     2.2095717     2.1760078
C           7.2816673     2.5993123     1.1462053
H           3.3042210     2.9324137    -1.9594680
H           1.0298083     2.0866393    -2.1754830
H           0.1369711     0.4120617    -0.5581525
H           1.6152881    -0.4071391     1.2756076
H           3.9090248     0.4361972     1.4998369
H           8.0603604     1.2852083    -0.3953270
H           9.0462430     2.7197829    -0.1106607
H           7.1783269     4.1547909    -1.0110335
H           7.7263716     3.0155112    -2.2391949
H           5.2185408     3.2314567    -1.9565160
H           5.8538308     1.5901053    -2.0022269
H           7.6774769     1.9898354     1.9645917
H           7.4051452     3.6450913     1.4600385
26
014_C11H13NO_1-0-9-8 (-15,) energy =    -556.9872883
C           3.7758766     1.7304211    -0.1816334
C           3.0070560     2.0208017    -1.3237433
C           1.7072355     1.5306241    -1.4609299
C           1.1395654     0.7313758    -0.4737249
C           1.9005971     0.4256417     0.6553949
C           3.1969948     0.9094000     0.8076061
C           7.9827794     2.3299278    -0.2626657
C           7.1763533     3.1790240    -1.2362081
C           5.7414162     2.6627125    -1.3538246
N           5.1311987     2.1960400    -0.0886543
C           5.8109775     2.2393353     1.1275038
O           5.2636838     2.0729860     2.2093061
C           7.3219242     2.4753275     1.1038359
H           3.3989384     2.6340964    -2.1239543
H           1.1437067     1.7822409    -2.3556667
H           0.1276127     0.3512918    -0.5811635
H           1.4848232    -0.2033675     1.4383446
H           3.7548709     0.6664101     1.6977524
H           7.9805790     1.2792421    -0.5828626
H           9.0297093     2.6515999    -0.2229463
H           7.1726720     4.2193031    -0.8842946
H           7.6117394     3.1866830    -2.2420691
H           5.1242830     3.4687211    -1.7642807
H           5.6998694     1.8305138    -2.0689308
H           7.7338332     1.7867577     1.8483087
H           7.4929819     3.4861068     1.4990946
26
014_C11H13NO_1-0-9-8 (0,) energy =    -556.9879834
C           3.7943771     1.6233513    -0.1456227
C           3.1447363     1.6915582    -1.3947289
C           1.8127526     1.3019918    -1.5395000
C           1.0782352     0.8512066    -0.4470931
C           1.7056202     0.7991668     0.7971135
C           3.0354037     1.1815470     0.9588808
C           8.0467379     2.5309356    -0.2422617
C           7.0738777     3.3791751    -1.0495487
C           5.7589156     2.6345515    -1.2545434
N           5.1474529     2.0974142    -0.0167868
C           5.9470861     1.7588880     1.0784291
O           5.5386854     1.1390991     2.0513397
C           7.3975579     2.2498250     1.1089579
H           3.6666301     2.0134870    -2.2852271
H           1.3555678     1.3580280    -2.5240417
H           0.0405014     0.5507689    -0.5608977
H           1.1548008     0.4603309     1.6708857
H           3.4903647     1.1321101     1.9335766
H           8.2506317     1.5904933    -0.7725019
H           9.0096044     3.0375556    -0.1088763
H           6.8863192     4.3268268    -0.5271072
H           7.4723945     3.6312992    -2.0394594
H           5.0405521     3.3257039    -1.7025163
H           5.9079218     1.8109731    -1.9682150
H           7.9432124     1.5034784     1.6924153
H           7.3927909     3.1684581     1.7135385
26
014_C11H13NO_1-0-9-8 (15,) energy =    -556.9902291
C           3.7918357     1.6261902    -0.2153455
C           3.1733732     1.5081942    -1.4715491
C           1.8283926     1.1495152    -1.5776772
C           1.0669801     0.9119947    -0.4368286
C           1.6726506     1.0425660     0.8143669
C           3.0129122     1.3996042     0.9349727
C           8.0187427     2.6282027    -0.3487867
C           6.9911120     3.5025710    -1.0595364
C           5.7229886     2.7005396    -1.3307359
N           5.1529447     2.0683933    -0.1218922
C           5.9786709     1.6204804     0.9111434
O           5.5873980     0.8862330     1.8074617
C           7.4138734     2.1495227     0.9700478
H           3.7351684     1.6667227    -2.3839479
H           1.3830971     1.0571614    -2.5648721
H           0.0201679     0.6333113    -0.5187265
H           1.0943466     0.8712342     1.7185584
H           3.4595558     1.4932388     1.9130262
H           8.2718873     1.7685398    -0.9845670
H           8.9522756     3.1728873    -0.1656880
H           6.7510323     4.3780990    -0.4416001
H           7.3707625     3.8766042    -2.0178069
H           4.9549760     3.3583365    -1.7473370
H           5.9365070     1.9301844    -2.0871530
H           8.0034586     1.3568651     1.4387650
H           7.3926691     2.9812586     1.6892529
26
014_C11H13NO_1-0-9-8 (30,) energy =    -556.9911696
C           3.8045880     1.6244800    -0.2274274
C           3.2261251     1.3483185    -1.4744772
C           1.8761343     1.0061244    -1.5703984
C           1.0844859     0.9309062    -0.4265520
C           1.6583786     1.2062062     0.8168696
C           3.0024462     1.5541274     0.9229877
C           8.0103987     2.6616165    -0.3455396
C           6.9629147     3.5830765    -0.9653693
C           5.7109288     2.7809249    -1.3036374
N           5.1756880     2.0327906    -0.1481584
C           5.9951925     1.5419688     0.8641267
O           5.5909055     0.7774487     1.7291191
C           7.4362877     2.0524375     0.9344508
H           3.8260683     1.3848391    -2.3773888
H           1.4499808     0.7937773    -2.5474000
H           0.0343864     0.6624151    -0.5006810
H           1.0532873     1.1564282     1.7182916
H           3.4359362     1.7604773     1.8917525
H           8.2663598     1.8682368    -1.0613851
H           8.9393218     3.2009549    -0.1265471
H           6.7096026     4.3907596    -0.2656813
H           7.3327543     4.0529088    -1.8844772
H           4.9159670     3.4438459    -1.6582975
H           5.9443571     2.0872869    -2.1257115
H           8.0353828     1.2145832     1.3027008
H           7.4407040     2.8039977     1.7369087
26
014_C11H13NO_1-0-9-8 (45,) energy =    -556.9909686
C           3.8181449     1.6159852    -0.2457559
C           3.2794874     1.1802169    -1.4620501
C           1.9283252     0.8417442    -1.5544487
C           1.1060876     0.9207591    -0.4313975
C           1.6455828     1.3441322     0.7858031
C           2.9904173     1.6940722     0.8820190
C           8.0040534     2.6632015    -0.3518698
C           6.9535099     3.6424098    -0.8727168
C           5.6887241     2.8809126    -1.2568324
N           5.1949783     2.0095729    -0.1723605
C           6.0091333     1.4738202     0.8156824
O           5.5940214     0.6760930     1.6452740
C           7.4564318     1.9629891     0.8936237
H           3.9154002     1.0974077    -2.3381210
H           1.5245277     0.5074657    -2.5064634
H           0.0554359     0.6530365    -0.5014433
H           1.0145239     1.4076347     1.6682741
H           3.4074649     2.0156534     1.8283371
H           8.2320391     1.9247734    -1.1330367
H           8.9449568     3.1744666    -0.1170341
H           6.7199682     4.3876380    -0.1004626
H           7.3126368     4.1880528    -1.7533209
H           4.8813473     3.5744222    -1.5125664
H           5.8948652     2.2815030    -2.1565841
H           8.0568826     1.0947135     1.1810080
H           7.4890076     2.6502778     1.7509128
26
014_C11H13NO_1-0-9-8 (60,) energy =    -556.9903987
C           3.8417746     1.6321716    -0.2534607
C           3.3567143     1.0237190    -1.4149148
C           2.0091456     0.6725775    -1.5116886
C           1.1443820     0.9120171    -0.4435583
C           1.6332546     1.5059832     0.7226047
C           2.9752156     1.8694963     0.8185530
C           8.0098113     2.6605339    -0.3865941
C           6.9709342     3.7076927    -0.7859647
C           5.6654833     3.0205706    -1.1775249
N           5.2180160     2.0348944    -0.1756926
C           6.0388291     1.4294677     0.7610560
O           5.6214332     0.5836904     1.5404344
C           7.4954849     1.8889182     0.8311264
H           4.0347414     0.8189263    -2.2386135
H           1.6400950     0.2022421    -2.4192015
H           0.0965708     0.6337945    -0.5164770
H           0.9668738     1.6893174     1.5611678
H           3.3621475     2.3259595     1.7231995
H           8.1780053     1.9733347    -1.2274853
H           8.9766182     3.1257082    -0.1613873
H           6.7932433     4.3928059     0.0539959
H           7.3135926     4.3146469    -1.6322951
H           4.8634320     3.7568797    -1.2980493
H           5.7950639     2.5270005    -2.1527379
H           8.0893414     0.9932247     1.0370982
H           7.5712060     2.5163726     1.7303386
26
014_C11H13NO_1-0-9-8 (75,) energy =    -556.9899721
C           3.8389260     1.6298178    -0.2325809
C           3.4148222     0.8396565    -1.3041096
C           2.0728991     0.4723860    -1.4128149
C           1.1530920     0.8886546    -0.4489487
C           1.5790174     1.6728096     0.6252676
C           2.9185377     2.0462579     0.7325513
C           7.9934925     2.6565526    -0.4395509
C           6.9560767     3.7527691    -0.6828201
C           5.6155214     3.1291355    -1.0633811
N           5.2115500     2.0509424    -0.1439904
C           6.0705251     1.3188361     0.6557296
O           5.6806732     0.3715456     1.3244767
C           7.5281104     1.7742943     0.7221291
H           4.1394495     0.5070546    -2.0421919
H           1.7485096    -0.1444132    -2.2466132
H           0.1088838     0.5997299    -0.5320521
H           0.8679712     1.9937726     1.3817132
H           3.2622210     2.6521921     1.5655100
H           8.1076335     2.0522288    -1.3503742
H           8.9783816     3.0854223    -0.2206114
H           6.8384052     4.3579594     0.2262148
H           7.2672213     4.4315281    -1.4856481
H           4.8231659     3.8861672    -1.0563346
H           5.6697378     2.7358775    -2.0906178
H           8.1303536     0.8663346     0.8217190
H           7.6366199     2.3186711     1.6708944
26
014_C11H13NO_1-0-9-8 (90,) energy =    -556.9900978
C           3.8327486     1.6315081    -0.2043689
C           3.4622746     0.6718390    -1.1505600
C           2.1238771     0.3015093    -1.2795116
C           1.1507052     0.8935985    -0.4715507
C           1.5208674     1.8545525     0.4707574
C           2.8601384     2.2232648     0.6048784
C           7.9769028     2.6994882    -0.4721190
C           6.9269017     3.8076466    -0.5558533
C           5.5716148     3.2177999    -0.9365189
N           5.2014365     2.0632505    -0.0983298
C           6.1048096     1.2237355     0.5302826
O           5.7532049     0.1823900     1.0671480
C           7.5599334     1.6866466     0.5983002
H           4.2266399     0.2105573    -1.7689190
H           1.8411797    -0.4508745    -2.0108256
H           0.1082832     0.6044554    -0.5740903
H           0.7687093     2.3143422     1.1061200
H           3.1617088     2.9626932     1.3415346
H           8.0621534     2.2021483    -1.4484499
H           8.9666253     3.1103926    -0.2407179
H           6.8489983     4.3177858     0.4137280
H           7.2010112     4.5651467    -1.2996317
H           4.7821126     3.9703002    -0.8330872
H           5.5816148     2.9126526    -1.9951139
H           8.1734023     0.7812332     0.5744956
H           7.6963467     2.1236682     1.5977514
26
014_C11H13NO_1-0-9-8 (105,) energy =    -556.9904837
C           3.8239460     1.6180294    -0.2114735
C           3.4654177     0.5330797    -1.0176909
C           2.1243017     0.1737062    -1.1445782
C           1.1339081     0.9000904    -0.4795791
C           1.4913025     1.9847953     0.3224480
C           2.8336003     2.3405046     0.4599185
C           7.9628754     2.7340482    -0.4782800
C           6.9026231     3.8337114    -0.4265226
C           5.5456042     3.2695259    -0.8362194
N           5.1950546     2.0374062    -0.1039568
C           6.1218467     1.1506774     0.4195646
O           5.7966846     0.0599367     0.8682798
C           7.5763294     1.6158848     0.4934118
H           4.2394312    -0.0325722    -1.5254665
H           1.8526523    -0.6751342    -1.7663028
H           0.0893968     0.6191609    -0.5831701
H           0.7276338     2.5502783     0.8496331
H           3.1207705     3.1728212     1.0969595
H           8.0292123     2.3383622    -1.5014203
H           8.9547435     3.1283667    -0.2281754
H           6.8417549     4.2425271     0.5911364
H           7.1527059     4.6652530    -1.0959505
H           4.7550569     4.0043584    -0.6532028
H           5.5393236     3.0609787    -1.9179078
H           8.1921370     0.7212189     0.3625400
H           7.7372237     1.9494472     1.5284387
26
014_C11H13NO_1-0-9-8 (120,) energy =    -556.9904221
C           3.8220962     1.6100659    -0.2550205
C           3.4527770     0.4306026    -0.9123493
C           2.1072212     0.0799407    -1.0109793
C           1.1180905     0.8997973    -0.4638891
C           1.4856252     2.0727309     0.1960487
C           2.8314236     2.4230388     0.3069683
C           7.9650465     2.7642595    -0.4720852
C           6.8970410     3.8446258    -0.3120514
C           5.5434449     3.3097763    -0.7682281
N           5.1996471     2.0072163    -0.1624693
C           6.1361588     1.1018907     0.3124417
O           5.8263462    -0.0145560     0.7064833
C           7.5911600     1.5642523     0.4001019
H           4.2196456    -0.2112821    -1.3289622
H           1.8318390    -0.8393116    -1.5209511
H           0.0705107     0.6235441    -0.5463772
H           0.7267443     2.7135388     0.6369803
H           3.1145404     3.3227341     0.8463672
H           8.0245454     2.4624017    -1.5270474
H           8.9565941     3.1410191    -0.1952317
H           6.8389749     4.1565049     0.7395916
H           7.1346659     4.7373341    -0.9025965
H           4.7529380     4.0221395    -0.5173378
H           5.5364960     3.2048873    -1.8644765
H           8.2046956     0.6849480     0.1823690
H           7.7671568     1.8034124     1.4584553
26
014_C11H13NO_1-0-9-8 (135,) energy =    -556.9893565
C           3.8240999     1.6148994    -0.2971808
C           3.4567108     0.3575984    -0.7987874
C           2.1121338     0.0006288    -0.8784501
C           1.1131212     0.8805048    -0.4585182
C           1.4750693     2.1252037     0.0545803
C           2.8193276     2.4873448     0.1432581
C           7.9684593     2.7955917    -0.4897443
C           6.9070749     3.8552985    -0.2087843
C           5.5416378     3.3648018    -0.6788916
N           5.2056870     2.0021002    -0.2122807
C           6.1520205     1.0902493     0.2371051
O           5.8567917    -0.0369337     0.6119104
C           7.6133085     1.5380702     0.3026073
H           4.2223200    -0.3359655    -1.1189197
H           1.8466566    -0.9762955    -1.2736689
H           0.0665403     0.5964903    -0.5245494
H           0.7128862     2.8183691     0.4005918
H           3.0778205     3.4467452     0.5797801
H           7.9923709     2.5750776    -1.5659217
H           8.9694078     3.1491408    -0.2164310
H           6.8760341     4.0708523     0.8679574
H           7.1278250     4.7990548    -0.7212437
H           4.7693981     4.0548707    -0.3341650
H           5.5040605     3.3753828    -1.7788488
H           8.2075533     0.6712575    -0.0024131
H           7.8312184     1.6936281     1.3684333
26
014_C11H13NO_1-0-9-8 (150,) energy =    -556.9877794
C           3.8412987     1.6172160    -0.2324466
C           3.4950288     0.3085106    -0.6169001
C           2.1597877    -0.0476145    -0.7834237
C           1.1355250     0.8779564    -0.5748739
C           1.4708989     2.1747820    -0.1963187
C           2.8065987     2.5431219    -0.0251171
C           7.9242162     2.7548413    -0.6210847
C           6.9718357     3.8414570    -0.1374276
C           5.5156032     3.4353039    -0.3685992
N           5.2153352     2.0125896    -0.0937488
C           6.1826236     1.0938846     0.3052907
O           5.9082250    -0.0304414     0.7027511
C           7.6511184     1.5095184     0.2171173
H           4.2688422    -0.4277862    -0.7750754
H           1.9218503    -1.0649356    -1.0829915
H           0.0958793     0.5914014    -0.7059456
H           0.6938329     2.9154002    -0.0261173
H           3.0198518     3.5597515     0.2810657
H           7.7521711     2.5473567    -1.6859997
H           8.9700545     3.0667418    -0.5202899
H           7.1450507     4.0182441     0.9326108
H           7.1386657     4.7969253    -0.6480173
H           4.8854111     4.0638246     0.2669768
H           5.2271317     3.6416773    -1.4082590
H           8.1832173     0.6272878    -0.1522527
H           8.0006437     1.6651754     1.2471436
26
014_C11H13NO_1-0-9-8 (165,) energy =    -556.9872198
C           3.8504336     1.5790671    -0.2130701
C           3.4555091     0.2390198    -0.4064502
C           2.1136536    -0.0817038    -0.5951476
C           1.1226560     0.9001037    -0.5988408
C           1.5033010     2.2257889    -0.4163857
C           2.8442178     2.5644871    -0.2294971
C           7.9127705     2.8074585    -0.6411937
C           6.9686498     3.8157469    -0.0011182
C           5.5112498     3.4080644    -0.2141731
N           5.2270341     1.9629536    -0.0634262
C           6.2317441     1.0355073     0.2074338
O           6.0108672    -0.1240760     0.5312201
C           7.6901063     1.4787971     0.0725968
H           4.1942728    -0.5454748    -0.3932373
H           1.8461832    -1.1252036    -0.7405172
H           0.0786867     0.6366866    -0.7430327
H           0.7583214     3.0173015    -0.4187816
H           3.0794591     3.6118757    -0.1001918
H           7.6957610     2.7121120    -1.7137268
H           8.9582491     3.1239394    -0.5519143
H           7.1870772     3.8803511     1.0732430
H           7.0947431     4.8242745    -0.4116106
H           4.8976619     3.9588092     0.5060385
H           5.1816401     3.7120227    -1.2167314
H           8.1996244     0.6443094    -0.4193331
H           8.1006592     1.5254034     1.0905939
26
014_C11H13NO_1-0-9-8 (180,) energy =    -556.9878546
C           3.8591192     1.5180715    -0.2188384
C           3.3977822     0.1861198    -0.1509362
C           2.0425879    -0.1033131    -0.2973477
C           1.1018854     0.8998614    -0.5245420
C           1.5477424     2.2153258    -0.6087461
C           2.9004700     2.5236662    -0.4645644
C           7.9728738     2.8538812    -0.5268619
C           6.9596504     3.7297215     0.1960607
C           5.5399662     3.3266277    -0.1869092
N           5.2467757     1.8777981    -0.0884888
C           6.2738787     0.9338689    -0.0867212
O           6.0879285    -0.2760376    -0.0542215
C           7.7278606     1.4174231    -0.0789509
H           4.0998182    -0.6110754     0.0238246
H           1.7266281    -1.1413576    -0.2311782
H           0.0480634     0.6614231    -0.6371828
H           0.8448761     3.0232800    -0.7951201
H           3.1827781     3.5621510    -0.5643527
H           7.8400478     2.9475655    -1.6134069
H           9.0022405     3.1569920    -0.3032567
H           7.0962922     3.6343497     1.2816265
H           7.0810353     4.7912339    -0.0503590
H           4.8445047     3.8499870     0.4749059
H           5.3275552     3.6612660    -1.2124201
H           8.2759479     0.6878162    -0.6818409
H           8.0827155     1.2855307     0.9530448
