24
009_C11H10N2O_0-5-6-10 (-165,) energy =    -609.9269346
N          -0.1200833     0.4417521     1.4535362
C          -1.3100938     0.4528112     0.8447848
C          -1.5028910     0.0802789    -0.4865700
C          -0.3907260    -0.3301257    -1.2177066
C           0.8571355    -0.3513216    -0.5948367
C           0.9492174     0.0475494     0.7430351
C           2.2561371     0.0189882     1.5308666
C           5.8290920    -0.0203880    -0.8770698
C           5.5089772    -1.1232134    -0.1384660
C           4.3376869    -1.1664135     0.6746667
C           3.5177020    -0.0712735     0.7146243
N           3.8541341     1.0273250    -0.0335578
C           4.9873011     1.1627289    -0.8686652
O           5.1679792     2.2056672    -1.4892646
H          -2.1519752     0.7788290     1.4537660
H          -2.4931052     0.1140589    -0.9304788
H          -0.4886879    -0.6310028    -2.2573077
H           1.7408903    -0.6721255    -1.1364884
H           2.2785394     0.9125049     2.1677050
H           2.2247872    -0.8351742     2.2176877
H           6.7172199     0.0237964    -1.4972251
H           6.1594151    -1.9944158    -0.1648138
H           4.0938701    -2.0458368     1.2589715
H           3.2548171     1.8461182    -0.0225289
24
009_C11H10N2O_0-5-6-10 (-150,) energy =    -609.9274850
N          -0.0454281     0.6235947     1.3754541
C          -1.2251530     0.7056996     0.7489893
C          -1.4631756     0.1885555    -0.5244602
C          -0.4119273    -0.4520489    -1.1784160
C           0.8211227    -0.5494359    -0.5366717
C           0.9626850     0.0043255     0.7415768
C           2.2604052    -0.1044557     1.5350862
C           5.8276217     0.0876040    -0.8738799
C           5.5612271    -1.0494371    -0.1668681
C           4.3923715    -1.1700054     0.6423799
C           3.5221383    -0.1157741     0.7121025
N           3.8049706     1.0175071    -0.0048258
C           4.9301311     1.2287407    -0.8345298
O           5.0616088     2.2949743    -1.4271307
H          -2.0174661     1.2156959     1.2946751
H          -2.4403870     0.2899337    -0.9865481
H          -0.5476199    -0.8696372    -2.1724351
H           1.6609825    -1.0437879    -1.0151573
H           2.2767802     0.7276878     2.2492422
H           2.2333639    -1.0219757     2.1358580
H           6.7122619     0.1914036    -1.4918964
H           6.2522482    -1.8878055    -0.2164807
H           4.1912103    -2.0750231     1.2034028
H           3.1649479     1.8044702     0.0259231
24
009_C11H10N2O_0-5-6-10 (-135,) energy =    -609.9279118
N           0.0447449     0.7697585     1.2857076
C          -1.1180664     0.9135763     0.6362542
C          -1.4291996     0.2531826    -0.5513394
C          -0.4734300    -0.6055653    -1.0946549
C           0.7390238    -0.7666526    -0.4295160
C           0.9580273    -0.0607297     0.7607498
C           2.2457456    -0.2237940     1.5592239
C           5.7940121     0.1673850    -0.8531646
C           5.5534491    -1.0124075    -0.2098901
C           4.3931066    -1.2003206     0.5988693
C           3.5057244    -0.1667366     0.7329630
N           3.7628675     1.0103535     0.0810809
C           4.8770674     1.2884764    -0.7434484
O           4.9854168     2.3885614    -1.2757502
H          -1.8329955     1.5967221     1.0917545
H          -2.3879215     0.4121989    -1.0354178
H          -0.6682238    -1.1397278    -2.0207196
H           1.5098912    -1.4229197    -0.8229292
H           2.2541367     0.5622292     2.3231982
H           2.2275371    -1.1823036     2.0919620
H           6.6716974     0.3216263    -1.4705651
H           6.2590199    -1.8338285    -0.3116391
H           4.2130523    -2.1384284     1.1106448
H           3.1074953     1.7813173     0.1606752
24
009_C11H10N2O_0-5-6-10 (-120,) energy =    -609.9283955
N           0.1672827     0.8846598     1.1587142
C          -0.9742679     1.0907855     0.4865780
C          -1.3838591     0.3170913    -0.5974282
C          -0.5553519    -0.7276704    -1.0096980
C           0.6337781    -0.9524194    -0.3226637
C           0.9568176    -0.1235541     0.7601530
C           2.2342770    -0.3340810     1.5612692
C           5.7593606     0.2760114    -0.8416245
C           5.5569852    -0.9405594    -0.2561905
C           4.4077904    -1.2026052     0.5479362
C           3.4918829    -0.2033310     0.7365767
N           3.7105932     1.0114422     0.1435476
C           4.8108118     1.3629515    -0.6715601
O           4.8843356     2.4906190    -1.1492967
H          -1.5875486     1.9186778     0.8380534
H          -2.3203898     0.5301041    -1.1036335
H          -0.8312959    -1.3556024    -1.8525172
H           1.3096829    -1.7498284    -0.6183306
H           2.2350930     0.4030209     2.3721399
H           2.2277893    -1.3282743     2.0223230
H           6.6282757     0.4861605    -1.4549465
H           6.2857080    -1.7347317    -0.4019485
H           4.2587746    -2.1695306     1.0140095
H           3.0310168     1.7558553     0.2656898
24
009_C11H10N2O_0-5-6-10 (-105,) energy =    -609.9292517
N           0.3448137     0.9630170     1.0064459
C          -0.7696151     1.2325224     0.3117112
C          -1.3024436     0.3809432    -0.6539842
C          -0.6327799    -0.8143946    -0.9190827
C           0.5287353    -1.1045328    -0.2090317
C           0.9826081    -0.1891089     0.7491236
C           2.2469482    -0.4478947     1.5531595
C           5.7587532     0.3729134    -0.8005454
C           5.5972721    -0.8726183    -0.2652001
C           4.4540700    -1.2063105     0.5203524
C           3.5048151    -0.2457230     0.7406455
N           3.6814606     0.9990394     0.1990292
C           4.7725453     1.4196063    -0.5947885
O           4.8102292     2.5666166    -1.0288851
H          -1.2566714     2.1774479     0.5456142
H          -2.2119998     0.6490127    -1.1825941
H          -1.0094957    -1.5079704    -1.6659438
H           1.0824157    -2.0210235    -0.3923915
H           2.2413996     0.2372553     2.4083459
H           2.2489755    -1.4710364     1.9429734
H           6.6226420     0.6369096    -1.3999987
H           6.3541780    -1.6343793    -0.4381423
H           4.3351496    -2.1958648     0.9458703
H           2.9701968     1.7094393     0.3467297
24
009_C11H10N2O_0-5-6-10 (-90,) energy =    -609.9305788
N           0.5327069     1.0115438     0.8313473
C          -0.5645435     1.3361312     0.1346407
C          -1.2512828     0.4391544    -0.6822239
C          -0.7607678    -0.8621283    -0.7891528
C           0.3847016    -1.2098324    -0.0768802
C           1.0009948    -0.2429824     0.7252905
C           2.2584738    -0.5459612     1.5213951
C           5.7641602     0.4818191    -0.7575278
C           5.6356359    -0.7918154    -0.2822890
C           4.4956512    -1.1962981     0.4738853
C           3.5169875    -0.2743186     0.7271372
N           3.6595657     0.9986603     0.2469242
C           4.7434438     1.4872968    -0.5161085
O           4.7501303     2.6529083    -0.9000736
H          -0.9088711     2.3629936     0.2420390
H          -2.1412860     0.7542394    -1.2179765
H          -1.2622323    -1.5943332    -1.4161764
H           0.7984557    -2.2122108    -0.1390585
H           2.2493019     0.0829387     2.4191459
H           2.2686120    -1.5919781     1.8419477
H           6.6253603     0.7990478    -1.3347135
H           6.4171722    -1.5214887    -0.4822148
H           4.4019412    -2.2078934     0.8510821
H           2.9140063     1.6704323     0.4138582
24
009_C11H10N2O_0-5-6-10 (-75,) energy =    -609.9318380
N           0.6931576     1.0125406     0.6242114
C          -0.4052928     1.3810055    -0.0456562
C          -1.2513141     0.4787331    -0.6902658
C          -0.9261508    -0.8759144    -0.6444175
C           0.2211419    -1.2705191     0.0419931
C           1.0042736    -0.2948435     0.6664603
C           2.2668145    -0.6444662     1.4339564
C           5.8086225     0.5849176    -0.6849047
C           5.7032260    -0.7105371    -0.2657033
C           4.5493740    -1.1792180     0.4290483
C           3.5342137    -0.2964279     0.6813747
N           3.6533525     0.9980075     0.2601043
C           4.7464777     1.5469531    -0.4453442
O           4.7286282     2.7255406    -0.7886116
H          -0.6169295     2.4482969    -0.0617658
H          -2.1351720     0.8316701    -1.2122902
H          -1.5544742    -1.6143633    -1.1349752
H           0.5067096    -2.3169734     0.0956307
H           2.2519486    -0.0912092     2.3818040
H           2.2852021    -1.7112948     1.6733568
H           6.6798418     0.9511640    -1.2163212
H           6.5141336    -1.4077848    -0.4646361
H           4.4731681    -2.2079325     0.7612535
H           2.8664838     1.6274185     0.4120261
24
009_C11H10N2O_0-5-6-10 (-60,) energy =    -609.9321044
N           0.8027021     0.9745415     0.4015549
C          -0.3161415     1.3741768    -0.2129793
C          -1.3012418     0.4947542    -0.6618697
C          -1.1001867    -0.8706825    -0.4691898
C           0.0675483    -1.2977245     0.1614959
C           0.9959286    -0.3428329     0.5882352
C           2.2771859    -0.7405930     1.3020871
C           5.8818475     0.6778079    -0.5830308
C           5.7894171    -0.6355044    -0.2194943
C           4.6111533    -1.1607212     0.3869243
C           3.5581766    -0.3142223     0.6132928
N           3.6654524     0.9975010     0.2509083
C           4.7785700     1.5993916    -0.3747729
O           4.7432473     2.7877359    -0.6830503
H          -0.4264640     2.4480827    -0.3485874
H          -2.1943464     0.8731615    -1.1490648
H          -1.8380231    -1.5934861    -0.8066487
H           0.2582647    -2.3546046     0.3228337
H           2.2569395    -0.2842870     2.3026657
H           2.3041162    -1.8238358     1.4465913
H           6.7712783     1.0872136    -1.0487789
H           6.6298483    -1.3031999    -0.3962516
H           4.5455584    -2.2035180     0.6747377
H           2.8395969     1.5869801     0.3580609
24
009_C11H10N2O_0-5-6-10 (-45,) energy =    -609.9311181
N           0.8669166     0.9200070     0.1698208
C          -0.2774256     1.3501473    -0.3739899
C          -1.3690908     0.5190500    -0.6193427
C          -1.2537862    -0.8299310    -0.2872882
C          -0.0619352    -1.2873621     0.2709537
C           0.9801123    -0.3789373     0.4918656
C           2.2822006    -0.8326509     1.1352395
C           5.9549549     0.7511363    -0.4706975
C           5.8718071    -0.5752103    -0.1543968
C           4.6682062    -1.1480710     0.3486631
C           3.5780966    -0.3356426     0.5254738
N           3.6763280     0.9882441     0.2113711
C           4.8137542     1.6356931    -0.3176964
O           4.7653954     2.8309302    -0.5979154
H          -0.3168258     2.4087698    -0.6217552
H          -2.2767329     0.9195773    -1.0596280
H          -2.0759969    -1.5176303    -0.4655092
H           0.0627708    -2.3339597     0.5329460
H           2.2594922    -0.4977455     2.1848942
H           2.3128647    -1.9250951     1.1655747
H           6.8638658     1.1970636    -0.8589128
H           6.7402139    -1.2162635    -0.2899933
H           4.6118710    -2.2006773     0.6007969
H           2.8210068     1.5438940     0.2545025
24
009_C11H10N2O_0-5-6-10 (-30,) energy =    -609.9294395
N           0.9157732     0.8489295    -0.0491953
C          -0.2504090     1.3056968    -0.5231920
C          -1.4100465     0.5365166    -0.5723244
C          -1.3453568    -0.7768430    -0.1064485
C          -0.1345872    -1.2603053     0.3812546
C           0.9817938    -0.4127428     0.4005330
C           2.3018106    -0.9206921     0.9662813
C           6.0194406     0.8142337    -0.3586653
C           5.9508859    -0.5214048    -0.0789772
C           4.7318103    -1.1378287     0.3229498
C           3.6082285    -0.3592729     0.4401685
N           3.6911840     0.9730554     0.1618146
C           4.8452574     1.6625668    -0.2697612
O           4.7812552     2.8620479    -0.5290663
H          -0.2475331     2.3342398    -0.8774903
H          -2.3311944     0.9544897    -0.9657863
H          -2.2227008    -1.4174994    -0.1295628
H          -0.0494524    -2.2814008     0.7421128
H           2.2776824    -0.7230815     2.0512019
H           2.3362964    -2.0096935     0.8689450
H           6.9406048     1.2931232    -0.6714166
H           6.8442612    -1.1359920    -0.1664728
H           4.6888482    -2.1969405     0.5497939
H           2.8162268     1.4984046     0.1362188
24
009_C11H10N2O_0-5-6-10 (-15,) energy =    -609.9277138
N           0.9330571     0.7577982    -0.2291175
C          -0.2486934     1.2444242    -0.6335181
C          -1.4458338     0.5467432    -0.5096065
C          -1.4067646    -0.7235426     0.0683870
C          -0.1836235    -1.2349927     0.4880775
C           0.9754515    -0.4604783     0.3255998
C           2.3070216    -1.0278205     0.8037591
C           6.0460146     0.8530434    -0.2416708
C           5.9996622    -0.4883071     0.0158700
C           4.7757619    -1.1467075     0.3229239
C           3.6213140    -0.4056822     0.3709386
N           3.6822145     0.9317769     0.1160165
C           4.8416409     1.6616325    -0.2276712
O           4.7556399     2.8610781    -0.4814576
H          -0.2241378     2.2381171    -1.0753459
H          -2.3769363     0.9847090    -0.8548944
H          -2.3152872    -1.3081500     0.1846956
H          -0.1189223    -2.2232343     0.9352027
H           2.2833436    -0.9970214     1.9056203
H           2.3425610    -2.0926727     0.5507469
H           6.9710045     1.3640478    -0.4844744
H           6.9157158    -1.0742930    -0.0158646
H           4.7510425    -2.2097311     0.5344388
H           2.7946366     1.4275135     0.0227236
24
009_C11H10N2O_0-5-6-10 (0,) energy =    -609.9265351
N           0.9397801     0.7605440    -0.3064371
C          -0.2570292     1.3025633    -0.5755127
C          -1.4617984     0.6529439    -0.3317556
C          -1.4143855    -0.6273680     0.2244281
C          -0.1767556    -1.1930814     0.5064618
C           0.9923690    -0.4668979     0.2260771
C           2.3331174    -1.1186223     0.5415702
C           6.0775691     0.9154709    -0.1739285
C           6.0637582    -0.3856708     0.2473498
C           4.8462546    -1.0821604     0.4780956
C           3.6590030    -0.4213251     0.2728739
N           3.6874057     0.8720620    -0.1461487
C           4.8446603     1.6402691    -0.4076101
O           4.7297496     2.8015805    -0.7945578
H          -0.2364992     2.3016269    -1.0049108
H          -2.4052437     1.1343536    -0.5684812
H          -2.3290163    -1.1751660     0.4342424
H          -0.1067039    -2.1876412     0.9388416
H           2.3182153    -1.3839895     1.6082918
H           2.3620144    -2.0832015     0.0176945
H           7.0007466     1.4544768    -0.3550708
H           7.0042403    -0.9075155     0.4111762
H           4.8462123    -2.1127328     0.8158558
H           2.7882530     1.3225427    -0.3319600
24
009_C11H10N2O_0-5-6-10 (15,) energy =    -609.9277142
N           0.9387566     0.7565061    -0.3012572
C          -0.2518688     1.3653060    -0.3946820
C          -1.4566432     0.7398492    -0.0903892
C          -1.4157516    -0.5905615     0.3308821
C          -0.1833516    -1.2268615     0.4316455
C           0.9834037    -0.5197063     0.1025904
C           2.3257485    -1.2348990     0.2038056
C           6.0433514     0.9371324    -0.0582371
C           5.9801992    -0.2344838     0.6425403
C           4.7601688    -0.9538187     0.7826620
C           3.6280739    -0.4568335     0.1862705
N           3.7061670     0.7109955    -0.5118315
C           4.8618628     1.5057312    -0.6788525
O           4.7908124     2.5652237    -1.2976614
H          -0.2283489     2.4003000    -0.7286015
H          -2.3948486     1.2780255    -0.1804885
H          -2.3300261    -1.1213349     0.5820785
H          -0.1174433    -2.2594956     0.7633276
H           2.3214605    -1.8583587     1.1040474
H           2.3648674    -1.9475252    -0.6365984
H           6.9651329     1.4979273    -0.1654029
H           6.8788432    -0.6312481     1.1100607
H           4.7221784    -1.8873604     1.3325807
H           2.8271151     1.1241489    -0.8258937
24
009_C11H10N2O_0-5-6-10 (30,) energy =    -609.9294395
N           0.9280380     0.7236154    -0.4934798
C          -0.2463183     1.3670380    -0.5107061
C          -1.4288102     0.8152083    -0.0249280
C          -1.3798532    -0.4724658     0.5095830
C          -0.1608800    -1.1439559     0.5367362
C           0.9795724    -0.5147565     0.0183635
C           2.3102155    -1.2562960     0.0106404
C           6.0057322     0.9634191     0.0424521
C           5.9140387    -0.2182577     0.7221472
C           4.6991920    -0.9597855     0.7677837
C           3.6049123    -0.4723144     0.0990467
N           3.7115793     0.7056067    -0.5797709
C           4.8609998     1.5222496    -0.6530342
O           4.8170469     2.5889831    -1.2614998
H          -0.2309183     2.3690397    -0.9339901
H          -2.3554130     1.3791247    -0.0627785
H          -2.2752905    -0.9433374     0.9060838
H          -0.0877819    -2.1438064     0.9550770
H           2.3078833    -2.0010062     0.8118850
H           2.3453554    -1.8343578    -0.9281065
H           6.9233169     1.5399585     0.0061231
H           6.7846330    -0.6067589     1.2462004
H           4.6376317    -1.8996084     1.3044086
H           2.8510857     1.1035461    -0.9586662
24
009_C11H10N2O_0-5-6-10 (45,) energy =    -609.9311164
N           0.8949524     0.6290638    -0.7021829
C          -0.2619794     1.2990178    -0.6483081
C          -1.3869499     0.8298040     0.0277044
C          -1.2942976    -0.3952560     0.6864086
C          -0.0897225    -1.0941067     0.6421630
C           0.9870830    -0.5522217    -0.0696401
C           2.3059212    -1.3039795    -0.1733168
C           5.9416627     0.9879991     0.1676318
C           5.8356376    -0.2125133     0.8108410
C           4.6419420    -0.9880451     0.7522688
C           3.5843688    -0.5125298     0.0206613
N           3.7042387     0.6852252    -0.6209224
C           4.8342892     1.5311185    -0.5983936
O           4.8069574     2.6068430    -1.1912145
H          -0.2838752     2.2525363    -1.1717501
H          -2.3034767     1.4111174     0.0377878
H          -2.1434424    -0.7983748     1.2315618
H           0.0182430    -2.0471521     1.1516777
H           2.3075412    -2.1380770     0.5334673
H           2.3438868    -1.7545009    -1.1783566
H           6.8432505     1.5889868     0.2086923
H           6.6779230    -0.5905488     1.3862426
H           4.5684786    -1.9416373     1.2621546
H           2.8687164     1.0606021    -1.0715583
24
009_C11H10N2O_0-5-6-10 (60,) energy =    -609.9321046
N           0.8527684     0.5264029    -0.9134380
C          -0.2832728     1.2210201    -0.7859935
C          -1.3147133     0.8530919     0.0777136
C          -1.1439329    -0.2908743     0.8549839
C           0.0409578    -1.0159275     0.7365578
C           1.0170862    -0.5776847    -0.1639681
C           2.3198751    -1.3354580    -0.3580195
C           5.8691040     1.0172507     0.2993760
C           5.7567212    -0.2058791     0.8968282
C           4.5945770    -1.0142694     0.7301992
C           3.5775471    -0.5444935    -0.0581507
N           3.7040559     0.6771473    -0.6537919
C           4.8037744     1.5536169    -0.5295930
O           4.7882549     2.6440662    -1.0945086
H          -0.3690998     2.1104633    -1.4067853
H          -2.2197494     1.4493496     0.1374466
H          -1.9184570    -0.6134185     1.5454897
H           0.2085752    -1.9091502     1.3310580
H           2.3228176    -2.2385396     0.2580609
H           2.3618632    -1.6634786    -1.4070446
H           6.7467197     1.6420663     0.4220437
H           6.5685458    -0.5775143     1.5182880
H           4.5137103    -1.9849988     1.2052588
H           2.9020731     1.0360518    -1.1724337
24
009_C11H10N2O_0-5-6-10 (75,) energy =    -609.9318379
N           0.7595785     0.4017399    -1.1112906
C          -0.3596475     1.1097108    -0.9183901
C          -1.2612495     0.8557678     0.1150491
C          -0.9724780    -0.1815477     1.0001923
C           0.1956351    -0.9193391     0.8149067
C           1.0356563    -0.5981298    -0.2557886
C           2.3240071    -1.3552012    -0.5247546
C           5.7906021     1.0140475     0.4302787
C           5.6696907    -0.2326530     0.9745130
C           4.5385906    -1.0584571     0.7054532
C           3.5623314    -0.5797118    -0.1259367
N           3.6972842     0.6677892    -0.6670084
C           4.7692158     1.5602211    -0.4469394
O           4.7676849     2.6678359    -0.9765154
H          -0.5418076     1.9142103    -1.6281513
H          -2.1593935     1.4562620     0.2200124
H          -1.6445675    -0.4132717     1.8219899
H           0.4540174    -1.7324160     1.4869381
H           2.3241135    -2.3102161     0.0078984
H           2.3711412    -1.5738383    -1.5993296
H           6.6447039     1.6512381     0.6303844
H           6.4500158    -0.6107367     1.6313654
H           4.4498291    -2.0479255     1.1384538
H           2.9367423     1.0268719    -1.2423598
24
009_C11H10N2O_0-5-6-10 (90,) energy =    -609.9305768
N           0.6195236     0.2764501    -1.2747178
C          -0.4977477     0.9744100    -1.0319452
C          -1.2491214     0.8413794     0.1348297
C          -0.8064093    -0.0565087     1.1060071
C           0.3590737    -0.7818437     0.8695725
C           1.0414676    -0.5872145    -0.3364313
C           2.3246571    -1.3328205    -0.6595637
C           5.7458125     0.9825555     0.5569924
C           5.5962140    -0.2824861     1.0486692
C           4.4827444    -1.0984120     0.6886490
C           3.5516340    -0.5917472    -0.1763442
N           3.7152279     0.6761861    -0.6631502
C           4.7745684     1.5592534    -0.3569847
O           4.8021093     2.6824352    -0.8507503
H          -0.8039488     1.6682598    -1.8125700
H          -2.1523718     1.4267331     0.2758721
H          -1.3596162    -0.1903589     2.0316442
H           0.7375824    -1.4867925     1.6041696
H           2.3170372    -2.3282605    -0.2056930
H           2.3773952    -1.4570011    -1.7473606
H           6.5869147     1.6116388     0.8258078
H           6.3399930    -0.6842853     1.7331641
H           4.3729317    -2.1029933     1.0799576
H           3.0019691     1.0584737    -1.2796390
24
009_C11H10N2O_0-5-6-10 (105,) energy =    -609.9292518
N           0.4565473     0.1290455    -1.4059821
C          -0.6801907     0.7864113    -1.1358248
C          -1.2895803     0.7917270     0.1172367
C          -0.6769151     0.0810665     1.1502530
C           0.5067436    -0.6016046     0.8851870
C           1.0393141    -0.5548304    -0.4094858
C           2.3314442    -1.2759038    -0.7593481
C           5.7503938     0.9275389     0.6577342
C           5.5691287    -0.3576228     1.0814299
C           4.4550685    -1.1376145     0.6503135
C           3.5543163    -0.5761946    -0.2132877
N           3.7502759     0.7126344    -0.6310933
C           4.8150408     1.5624978    -0.2546191
O           4.8732620     2.7061238    -0.6954414
H          -1.1211189     1.3322509    -1.9679468
H          -2.2136615     1.3385099     0.2773915
H          -1.1142883     0.0594760     2.1447206
H           1.0175539    -1.1596198     1.6647962
H           2.3160049    -2.2989224    -0.3694892
H           2.3923099    -1.3338749    -1.8519480
H           6.5925073     1.5294066     0.9801357
H           6.2875206    -0.8042954     1.7651276
H           4.3209275    -2.1586712     0.9877140
H           3.0740160     1.1384281    -1.2585459
24
009_C11H10N2O_0-5-6-10 (120,) energy =    -609.9283951
N           0.2855172    -0.0329903    -1.4780449
C          -0.8792960     0.5624494    -1.1848274
C          -1.3684152     0.7072886     0.1118350
C          -0.5998248     0.2095875     1.1651487
C           0.6122796    -0.4095434     0.8752564
C           1.0176337    -0.5134115    -0.4621733
C           2.3246181    -1.1970401    -0.8396633
C           5.7472989     0.8804640     0.7534591
C           5.5293355    -0.4175419     1.1160260
C           4.4120982    -1.1560961     0.6239061
C           3.5437592    -0.5419275    -0.2373405
N           3.7768911     0.7598883    -0.5925742
C           4.8481280     1.5715394    -0.1542511
O           4.9390720     2.7307236    -0.5458049
H          -1.4442560     0.9416016    -2.0346056
H          -2.3200587     1.1987454     0.2893776
H          -0.9387515     0.3033543     2.1933312
H           1.2437448    -0.8025462     1.6670488
H           2.3051461    -2.2457542    -0.5223404
H           2.3923218    -1.1874216    -1.9334951
H           6.5924081     1.4508046     1.1220530
H           6.2208873    -0.9079035     1.7973993
H           4.2509378    -2.1881418     0.9125556
H           3.1315342     1.2291909    -1.2204241
24
009_C11H10N2O_0-5-6-10 (135,) energy =    -609.9279120
N           0.1631192    -0.2055483    -1.5029230
C          -1.0243956     0.3282304    -1.1873932
C          -1.4161003     0.6275383     0.1165254
C          -0.5195057     0.3571131     1.1505101
C           0.7177278    -0.1994956     0.8378321
C           1.0191704    -0.4675895    -0.5039173
C           2.3379173    -1.1138111    -0.9108230
C           5.7758031     0.8089525     0.8349818
C           5.5256356    -0.5008068     1.1274022
C           4.4001793    -1.1873116     0.5816698
C           3.5570937    -0.5119101    -0.2590260
N           3.8229484     0.8017047    -0.5425396
C           4.9048433     1.5653659    -0.0475934
O           5.0255248     2.7409114    -0.3774008
H          -1.6914415     0.5278386    -2.0243711
H          -2.3911142     1.0631339     0.3123503
H          -0.7786929     0.5768830     2.1826822
H           1.4445343    -0.4202284     1.6141917
H           2.3123144    -2.1829779    -0.6678044
H           2.4111193    -1.0394374    -2.0020243
H           6.6272204     1.3411244     1.2438826
H           6.1962044    -1.0408438     1.7919372
H           4.2125194    -2.2288747     0.8147290
H           3.1996162     1.3192035    -1.1540197
24
009_C11H10N2O_0-5-6-10 (150,) energy =    -609.9274842
N           0.0728543    -0.3748490    -1.4784297
C          -1.1321687     0.0980055    -1.1390734
C          -1.4509658     0.5624828     0.1370434
C          -0.4571086     0.5286792     1.1139012
C           0.8013120     0.0344287     0.7764563
C           1.0255280    -0.4064628    -0.5335130
C           2.3557369    -1.0100374    -0.9712957
C           5.8047266     0.7623861     0.9047429
C           5.5347648    -0.5584927     1.1195846
C           4.4032644    -1.1956993     0.5285592
C           3.5744042    -0.4614862    -0.2760418
N           3.8609949     0.8632322    -0.4794206
C           4.9506267     1.5821756     0.0635196
O           5.0896387     2.7731130    -0.1967837
H          -1.8778231     0.1086173    -1.9324799
H          -2.4453129     0.9410423     0.3531789
H          -0.6562089     0.8811028     2.1223867
H           1.5982785    -0.0092777     1.5124133
H           2.3247887    -2.0943090    -0.8072950
H           2.4374714    -0.8675664    -2.0556438
H           6.6613074     1.2573861     1.3480298
H           6.1935978    -1.1457489     1.7551326
H           4.1986240    -2.2457400     0.7011903
H           3.2504346     1.4251270    -1.0636583
24
009_C11H10N2O_0-5-6-10 (165,) energy =    -609.9269348
N           0.0294471    -0.5329164    -1.4171603
C          -1.1891567    -0.1300035    -1.0434454
C          -1.4624171     0.4764186     0.1836821
C          -0.4037180     0.6669198     1.0685415
C           0.8729304     0.2476568     0.6946542
C           1.0467469    -0.3443846    -0.5611121
C           2.3906726    -0.8784784    -1.0492012
C           5.8312768     0.7263426     0.9875502
C           5.5136852    -0.5915777     1.1503726
C           4.3848564    -1.1747268     0.5017514
C           3.6048693    -0.3910588    -0.3048373
N           3.9385690     0.9301704    -0.4560248
C           5.0314839     1.5970545     0.1444956
O           5.2150902     2.7902629    -0.0748157
H          -1.9870691    -0.2993327    -1.7649287
H          -2.4723747     0.7882085     0.4316694
H          -0.5650458     1.1335741     2.0365823
H           1.7164699     0.3767827     1.3647984
H           2.3654888    -1.9733164    -0.9947725
H           2.4760188    -0.6351844    -2.1159716
H           6.6872072     1.1799906     1.4742568
H           6.1325261    -1.2187409     1.7879500
H           4.1421691    -2.2223351     0.6352005
H           3.3686994     1.5286016    -1.0449443
24
009_C11H10N2O_0-5-6-10 (180,) energy =    -609.9263428
N          -0.0051655    -0.7216313    -1.3423999
C          -1.2339626    -0.3844195    -0.9406289
C          -1.4966528     0.3501344     0.2173607
C          -0.4137106     0.7487531     0.9963372
C           0.8759276     0.4023743     0.5910563
C           1.0359082    -0.3305672    -0.5892094
C           2.3935174    -0.7823956    -1.1236673
C           5.8097141     0.6048374     1.1052446
C           5.4216062    -0.6995923     1.2190718
C           4.3001678    -1.2119719     0.5024475
C           3.5980038    -0.3727016    -0.3196702
N           4.0022381     0.9338588    -0.4210141
C           5.0965934     1.5326523     0.2463622
O           5.3485786     2.7195128     0.0630884
H          -2.0508133    -0.7200309    -1.5779082
H          -2.5169914     0.5970728     0.4942044
H          -0.5649250     1.3199699     1.9083503
H           1.7366323     0.6953046     1.1825660
H           2.3749043    -1.8747521    -1.2004387
H           2.4886100    -0.4162188    -2.1550967
H           6.6623250     1.0039380     1.6428572
H           5.9781996    -1.3707530     1.8690926
H           4.0005629    -2.2488752     0.5985070
H           3.4972993     1.5714544    -1.0277626
