21
007_C10H8N2O_0-5-6-16 (-165,) energy =    -570.5977388
N          -0.0478880     1.3219440    -0.9287058
C          -1.2246053     0.7409644    -0.6873608
H          -2.0773913     1.1501788    -1.2270608
C          -1.3754754    -0.3311838     0.1931256
H          -2.3380691    -0.7955007     0.3746779
C           0.9893340     0.8126451    -0.2559434
O           2.1556642     1.4554241    -0.5032831
C          -0.2132498    -0.7687962     0.8215335
H          -0.2278603    -1.5989934     1.5259706
C           5.9180602    -0.0668485     0.4542827
H           6.9108463    -0.4409526     0.6876145
C           5.4920358     1.1593427     0.9664056
H           6.1514425     1.7455047     1.6005681
N           0.9800329    -0.2034205     0.6083019
C           4.2160623     1.6414841     0.6691081
H           3.8641985     2.5934888     1.0534054
C           3.3767521     0.8864847    -0.1450236
C           3.7897200    -0.3361580    -0.6732813
H           3.1224883    -0.9029547    -1.3140286
C           5.0639221    -0.8101632    -0.3645544
H           5.3917111    -1.7629681    -0.7712837
21
007_C10H8N2O_0-5-6-16 (-150,) energy =    -570.5967063
N          -0.0042046     1.6516870     0.4985143
C          -1.1812553     1.1833009     0.0754075
H          -2.0018374     1.8989781     0.0601566
C          -1.3669627    -0.1355494    -0.3385338
H          -2.3270061    -0.4994530    -0.6866389
C           0.9907647     0.7604904     0.5207290
O           2.1538667     1.2538244     1.0139078
C          -0.2421279    -0.9548043    -0.2831147
H          -0.2867050    -1.9989904    -0.5885287
C           5.9421970    -0.0235152    -0.1710959
H           6.9407717    -0.3324416    -0.4665318
C           5.6349242     0.1651288     1.1772863
H           6.3932647     0.0037566     1.9385353
N           0.9460958    -0.5203226     0.1491159
C           4.3518731     0.5585984     1.5591202
H           4.0909479     0.7111144     2.6014102
C           3.3821555     0.7657471     0.5808723
C           3.6747648     0.5913641    -0.7720690
H           2.9114783     0.7664935    -1.5227173
C           4.9588027     0.1907118    -1.1398055
H           5.1914614     0.0520044    -2.1921499
21
007_C10H8N2O_0-5-6-16 (-135,) energy =    -570.5951508
N           0.0765627     1.6220755     0.4446851
C          -1.0981720     1.2244067    -0.0557034
H          -1.8526905     2.0000593    -0.1763629
C          -1.3548987    -0.0956808    -0.4210161
H          -2.3095344    -0.4029433    -0.8330470
C           0.9872734     0.6594033     0.5988483
O           2.1442774     1.0692691     1.1825924
C          -0.3078928    -0.9959800    -0.2326681
H          -0.4116455    -2.0476205    -0.4949647
C           5.9393323     0.0610875    -0.2193124
H           6.9388555    -0.1816340    -0.5682438
C           5.6897170     0.2205982     1.1452229
H           6.4945880     0.1019263     1.8655071
N           0.8706525    -0.6319643     0.2815688
C           4.4066185     0.5278041     1.5964948
H           4.1899698     0.6537024     2.6523771
C           3.3747730     0.6807586     0.6715687
C           3.6084240     0.5336036    -0.6963357
H           2.8003691     0.6649696    -1.4080595
C           4.8953640     0.2184871    -1.1329884
H           5.0806490     0.1023605    -2.1974530
21
007_C10H8N2O_0-5-6-16 (-120,) energy =    -570.5935146
N           0.1808600     1.5787622     0.3996786
C          -0.9919752     1.2661441    -0.1651609
H          -1.6598358     2.1004044    -0.3729141
C          -1.3468180    -0.0416753    -0.4866376
H          -2.2978453    -0.2818051    -0.9488431
C           0.9832144     0.5472555     0.6601204
O           2.1350281     0.8625071     1.3165952
C          -0.4033380    -1.0235508    -0.1873683
H          -0.5886754    -2.0728045    -0.4111409
C           5.9327173     0.1685261    -0.2586651
H           6.9321098     0.0022657    -0.6500175
C           5.7267557     0.2972012     1.1171114
H           6.5666339     0.2308192     1.8034087
N           0.7684407    -0.7421924     0.3903381
C           4.4454711     0.5063335     1.6233562
H           4.2627849     0.6058755     2.6884285
C           3.3664088     0.5924168     0.7426329
C           3.5551183     0.4728495    -0.6350155
H           2.7133559     0.5504405    -1.3147743
C           4.8436503     0.2569081    -1.1264820
H           4.9921136     0.1631869    -2.1989452
21
007_C10H8N2O_0-5-6-16 (-105,) energy =    -570.5923075
N           0.3001920     1.5005866     0.3644260
C          -0.8736809     1.2898486    -0.2439121
H          -1.4402819     2.1795993    -0.5129885
C          -1.3519095     0.0132456    -0.5293918
H          -2.3042297    -0.1457626    -1.0230589
C           0.9791739     0.4033687     0.6964263
O           2.1278445     0.6100406     1.4039711
C          -0.5314763    -1.0481522    -0.1510958
H          -0.8179341    -2.0807814    -0.3429894
C           5.9267098     0.2860605    -0.2841887
H           6.9259501     0.2097872    -0.7027575
C           5.7465146     0.3944608     1.0974720
H           6.6069980     0.4023527     1.7611013
N           0.6411414    -0.8660047     0.4654523
C           4.4667643     0.4898654     1.6385930
H           4.3054229     0.5725426     2.7085402
C           3.3593897     0.4803458     0.7877123
C           3.5211595     0.3764451    -0.5946497
H           2.6592145     0.3741026    -1.2530084
C           4.8109841     0.2775055    -1.1209637
H           4.9374156     0.1964203    -2.1973020
21
007_C10H8N2O_0-5-6-16 (-90,) energy =    -570.5919280
N           0.4291630     1.4011868     0.3149868
C          -0.7481193     1.3022663    -0.3134515
H          -1.2057457     2.2396606    -0.6248142
C          -1.3648523     0.0774796    -0.5602590
H          -2.3216939     0.0088144    -1.0659152
C           0.9769471     0.2469294     0.6944039
O           2.1261388     0.3377161     1.4274012
C          -0.6788324    -1.0540754    -0.1243473
H          -1.0794346    -2.0541540    -0.2806313
C           5.9205972     0.4117302    -0.3006959
H           6.9184660     0.4322877    -0.7288489
C           5.7429739     0.5013903     1.0828573
H           6.6049414     0.5923098     1.7383420
N           0.4998718    -0.9828981     0.5054875
C           4.4652494     0.4757525     1.6357372
H           4.3061058     0.5442971     2.7070240
C           3.3555578     0.3587843     0.7952319
C           3.5145210     0.2676869    -0.5883228
H           2.6518120     0.1761458    -1.2392279
C           4.8032125     0.2954301    -1.1266142
H           4.9266533     0.2245547    -2.2040279
21
007_C10H8N2O_0-5-6-16 (-75,) energy =    -570.5925218
N           0.5747215     1.2912897     0.2698866
C          -0.6106217     1.3065783    -0.3484785
H          -0.9617840     2.2791309    -0.6891567
C          -1.3687572     0.1531505    -0.5433811
H          -2.3334155     0.1775446    -1.0380664
C           0.9950441     0.0937739     0.6808548
O           2.1503670     0.0665979     1.4071558
C          -0.8145080    -1.0324027    -0.0670246
H          -1.3324583    -1.9834807    -0.1777649
C           5.9238444     0.5438100    -0.3014960
H           6.9170043     0.6627112    -0.7245729
C           5.7330487     0.6136475     1.0811535
H           6.5787325     0.7881592     1.7408931
N           0.3747432    -1.0774969     0.5462590
C           4.4606796     0.4647365     1.6277987
H           4.2910547     0.5181199     2.6983316
C           3.3724119     0.2398959     0.7821386
C           3.5457044     0.1630237    -0.6005879
H           2.6987913    -0.0177726    -1.2537732
C           4.8270869     0.3189819    -1.1333333
H           4.9624939     0.2593973    -2.2099790
21
007_C10H8N2O_0-5-6-16 (-60,) energy =    -570.5938627
N           0.7055194     1.1708617     0.1956297
C          -0.4916179     1.2850001    -0.3870614
H          -0.7483699     2.2730552    -0.7655277
C          -1.3769362     0.2137455    -0.4974241
H          -2.3504273     0.3194074    -0.9630724
C           1.0125128    -0.0460918     0.6504116
O           2.1787488    -0.1784477     1.3419340
C          -0.9373785    -0.9994874     0.0268929
H          -1.5601702    -1.8915302    -0.0138550
C           5.9255344     0.6612307    -0.2843797
H           6.9125014     0.8683510    -0.6876251
C           5.7049468     0.6982931     1.0945108
H           6.5211136     0.9355970     1.7715207
N           0.2624598    -1.1467427     0.6012782
C           4.4387834     0.4372074     1.6149049
H           4.2454579     0.4637407     2.6824278
C           3.3906040     0.1316652     0.7460512
C           3.5949527     0.0834578    -0.6336649
H           2.7773854    -0.1634786    -1.3025273
C           4.8670241     0.3540819    -1.1403089
H           5.0276604     0.3175238    -2.2144687
21
007_C10H8N2O_0-5-6-16 (-45,) energy =    -570.5955060
N           0.8125889     1.0600686     0.0996993
C          -0.3969652     1.2648866    -0.4299586
H          -0.5768802     2.2563001    -0.8426374
C          -1.3856688     0.2828517    -0.4457771
H          -2.3670700     0.4624885    -0.8700727
C           1.0260370    -0.1607658     0.5965152
O           2.2066662    -0.3956427     1.2269666
C          -1.0376151    -0.9425116     0.1193217
H          -1.7456862    -1.7688799     0.1547497
C           5.9194686     0.7754399    -0.2665284
H           6.8989886     1.0635050    -0.6370698
C           5.6568591     0.7779126     1.1048125
H           6.4317004     1.0689240     1.8088154
N           0.1697392    -1.1829659     0.6411961
C           4.3988125     0.4125828     1.5829590
H           4.1724313     0.4094586     2.6442904
C           3.4059451     0.0384746     0.6787920
C           3.6540221     0.0217319    -0.6943502
H           2.8766159    -0.2804491    -1.3880013
C           4.9145888     0.3971532    -1.1590946
H           5.1108452     0.3863041    -2.2278460
21
007_C10H8N2O_0-5-6-16 (-30,) energy =    -570.5969299
N           0.8958357     0.9488904    -0.0063336
C          -0.3268499     1.2309740    -0.4674238
H          -0.4510862     2.2132425    -0.9205875
C          -1.3914748     0.3384744    -0.3692947
H          -2.3808137     0.5798421    -0.7410558
C           1.0404043    -0.2590933     0.5424835
O           2.2367128    -0.5859070     1.0909115
C          -1.1072813    -0.8838468     0.2391199
H          -1.8773950    -1.6436652     0.3630536
C           5.9133700     0.8675194    -0.2343687
H           6.8848147     1.2253119    -0.5632605
C           5.5998291     0.8341559     1.1252797
H           6.3263596     1.1660195     1.8619032
N           0.1062556    -1.2012950     0.6975800
C           4.3512720     0.3779177     1.5495676
H           4.0857778     0.3427465     2.6012447
C           3.4228869    -0.0479250     0.6025990
C           3.7231383    -0.0306734    -0.7597210
H           2.9925817    -0.3747619    -1.4840521
C           4.9716586     0.4345674    -1.1709352
H           5.2099525     0.4518392    -2.2309775
21
007_C10H8N2O_0-5-6-16 (-15,) energy =    -570.5977991
N           0.9596170     0.8435060    -0.1034740
C          -0.2724590     1.2047803    -0.4785856
H          -0.3587932     2.1800669    -0.9550735
C          -1.3877593     0.3981804    -0.2726640
H          -2.3823711     0.7021286    -0.5784194
C           1.0566748    -0.3534053     0.4772725
O           2.2658731    -0.7754163     0.9178651
C          -1.1465746    -0.8255851     0.3534416
H          -1.9580585    -1.5223490     0.5584002
C           5.8958345     0.9507479    -0.1925598
H           6.8560364     1.3775621    -0.4679954
C           5.5112614     0.8963772     1.1477480
H           6.1702776     1.2801694     1.9216785
N           0.0703560    -1.2192999     0.7331750
C           4.2772103     0.3496309     1.5043206
H           3.9584594     0.2937466     2.5402246
C           3.4381662    -0.1416842     0.5084307
C           3.8107353    -0.1042703    -0.8347219
H           3.1446669    -0.5023261    -1.5929564
C           5.0429179     0.4493586    -1.1793829
H           5.3390279     0.4835671    -2.2243030
21
007_C10H8N2O_0-5-6-16 (0,) energy =    -570.5979937
N           1.0403504     0.8086964    -0.0878759
C          -0.1969270     1.2879884    -0.2596754
H          -0.2642706     2.3161410    -0.6119685
C          -1.3379501     0.5325052    -0.0081017
H          -2.3358269     0.9311873    -0.1509167
C           1.1135098    -0.4512444     0.3441182
O           2.3316948    -1.0078354     0.5422658
C          -1.1179351    -0.7709972     0.4402801
H          -1.9504987    -1.4366699     0.6635609
C           5.8881459     1.0627539    -0.1410954
H           6.8286665     1.5790787    -0.3114826
C           5.2835800     1.1046354     1.1172000
H           5.7526551     1.6531816     1.9293816
N           0.1014200    -1.2802859     0.6219867
C           4.0772394     0.4403460     1.3410471
H           3.5961315     0.4544492     2.3138711
C           3.4860496    -0.2601877     0.2933043
C           4.0772384    -0.3179995    -0.9655230
H           3.5954999    -0.8837966    -1.7564525
C           5.2838622     0.3500576    -1.1788175
H           5.7526323     0.3097742    -2.1582204
21
007_C10H8N2O_0-5-6-16 (15,) energy =    -570.5977988
N           0.9483227     0.8383967    -0.1115404
C          -0.2862037     1.3492125    -0.0452790
H          -0.3739537     2.4141307    -0.2548742
C          -1.4028332     0.5782376     0.2638632
H          -2.3994114     1.0020491     0.3122653
C           1.0463383    -0.4661582     0.1487695
O           2.2584373    -1.0648675     0.0669423
C          -1.1602819    -0.7746661     0.5060034
H          -1.9729942    -1.4561217     0.7531880
C           5.8851580     0.9908250    -0.0460723
H           6.8445686     1.4995977    -0.0728953
C           5.0181610     1.1853837     1.0324002
H           5.3029695     1.8449162     1.8476222
N           0.0589310    -1.3141450     0.4553866
C           3.7868436     0.5330566     1.0774056
H           3.1098929     0.6724435     1.9136333
C           3.4293146    -0.3093396     0.0253672
C           4.2824487    -0.5174607    -1.0544801
H           3.9748051    -1.1888220    -1.8497279
C           5.5154162     0.1366347    -1.0857022
H           6.1852084    -0.0236771    -1.9260856
21
007_C10H8N2O_0-5-6-16 (30,) energy =    -570.5969299
N           0.8677212     0.8693277    -0.2447397
C          -0.3562477     1.3752398    -0.0625855
H          -0.4748116     2.4326605    -0.2937618
C          -1.4287266     0.6062193     0.3823049
H          -2.4189333     1.0252301     0.5207816
C           1.0052728    -0.4259341     0.0462270
O           2.2031350    -1.0200252    -0.1791285
C          -1.1512266    -0.7367893     0.6360498
H          -1.9277536    -1.4161439     0.9842537
C           5.8819396     0.9290563     0.0519928
H           6.8538719     1.4103091     0.1118889
C           4.9275686     1.1505000     1.0477556
H           5.1560622     1.8024454     1.8865527
N           0.0631755    -1.2693041     0.4772006
C           3.6782713     0.5344988     0.9831060
H           2.9376661     0.6983292     1.7585844
C           3.3902050    -0.2994826    -0.0975671
C           4.3315287    -0.5325285    -1.0973902
H           4.0752446    -1.1936346    -1.9189397
C           5.5807582     0.0839572    -1.0171938
H           6.3171452    -0.0970577    -1.7954015
21
007_C10H8N2O_0-5-6-16 (45,) energy =    -570.5955059
N           0.7866692     0.8943239    -0.3976039
C          -0.4255167     1.3798382    -0.1140185
H          -0.5992854     2.4202988    -0.3838650
C          -1.4240351     0.6078290     0.4768427
H          -2.4073995     1.0091715     0.6944767
C           0.9924624    -0.3800377    -0.0563267
O           2.1762756    -0.9501997    -0.4026441
C          -1.0830802    -0.7116143     0.7680906
H          -1.7990324    -1.3908702     1.2280112
C           5.8867077     0.8749559     0.1332204
H           6.8656150     1.3256932     0.2684429
C           4.8700964     1.1134476     1.0601495
H           5.0563167     1.7482497     1.9222634
N           0.1264651    -1.2208879     0.5121666
C           3.6101754     0.5369154     0.8985673
H           2.8235239     0.7157335     1.6238307
C           3.3748465    -0.2764921    -0.2106281
C           4.3796257    -0.5251195    -1.1443940
H           4.1628748    -1.1664888    -1.9925221
C           5.6368754     0.0513666    -0.9662312
H           6.4209199    -0.1425201    -1.6931419
21
007_C10H8N2O_0-5-6-16 (60,) energy =    -570.5938625
N           0.6815010     0.9319917    -0.5412447
C          -0.5192388     1.3783819    -0.1612273
H          -0.7691056     2.3952248    -0.4595688
C          -1.4165938     0.5936977     0.5617988
H          -2.3930519     0.9618993     0.8561507
C           0.9798027    -0.3136389    -0.1648461
O           2.1505670    -0.8399091    -0.6211241
C          -0.9849787    -0.6911632     0.8821739
H          -1.6174748    -1.3755697     1.4449917
C           5.8907619     0.8013287     0.2171152
H           6.8760040     1.2074680     0.4266822
C           4.8224940     1.0741977     1.0725378
H           4.9732015     1.6915627     1.9540916
N           0.2181666    -1.1591168     0.5288277
C           3.5524530     0.5557803     0.8152475
H           2.7271664     0.7634159     1.4879682
C           3.3602876    -0.2362283    -0.3176810
C           4.4185911    -0.5179361    -1.1823604
H           4.2343526    -1.1392513    -2.0528134
C           5.6827040     0.0009593    -0.9087487
H           6.5066126    -0.2193080    -1.5821559
21
007_C10H8N2O_0-5-6-16 (75,) energy =    -570.5925218
N           0.5527806     0.9769483    -0.6761341
C          -0.6378664     1.3646042    -0.2073829
H          -0.9824293     2.3469974    -0.5258418
C          -1.4091250     0.5632535     0.6329512
H          -2.3779144     0.8830962     1.0004061
C           0.9648989    -0.2275368    -0.2773777
O           2.1264279    -0.6896416    -0.8254486
C          -0.8623797    -0.6713766     0.9740932
H          -1.3907550    -1.3624690     1.6285347
C           5.8888859     0.7110123     0.3008237
H           6.8793030     1.0582850     0.5800848
C           4.7824815     1.0354113     1.0856858
H           4.9076529     1.6360584     1.9826775
N           0.3318406    -1.0797883     0.5273961
C           3.5044454     0.5932653     0.7374636
H           2.6497123     0.8443640     1.3563279
C           3.3444106    -0.1778432    -0.4147515
C           4.4424101    -0.5105319    -1.2108009
H           4.2825482    -1.1123456    -2.0995819
C           5.7112353    -0.0656159    -0.8473489
H           6.5646368    -0.3257860    -1.4677519
21
007_C10H8N2O_0-5-6-16 (90,) energy =    -570.5919279
N           0.4090447     1.0377463    -0.7800170
C          -0.7747080     1.3403730    -0.2342474
H          -1.2257291     2.2774087    -0.5561506
C          -1.4058331     0.5129099     0.6922536
H          -2.3677584     0.7651403     1.1247196
C           0.9485251    -0.1136473    -0.3805741
O           2.1050916    -0.4853335    -1.0053862
C          -0.7273855    -0.6547876     1.0347086
H          -1.1392741    -1.3580611     1.7563910
C           5.8836424     0.6049035     0.3797050
H           6.8776485     0.8767320     0.7224873
C           4.7579449     1.0128781     1.0943177
H           4.8701034     1.6051614     1.9986049
N           0.4575120    -0.9804099     0.5045381
C           3.4741908     0.6696104     0.6638992
H           2.6047418     0.9910782     1.2269654
C           3.3289344    -0.0908839    -0.4972954
C           4.4472833    -0.5069165    -1.2237955
H           4.2992059    -1.0973057    -2.1222430
C           5.7200792    -0.1566967    -0.7809560
H           6.5886653    -0.4814710    -1.3475429
21
007_C10H8N2O_0-5-6-16 (105,) energy =    -570.5923076
N           0.2758063     1.0877894    -0.8743690
C          -0.9051510     1.2882940    -0.2763580
H          -1.4655948     2.1621900    -0.6039289
C          -1.3977168     0.4415531     0.7137292
H          -2.3556651     0.6139636     1.1917531
C           0.9473145     0.0101106    -0.4708910
O           2.1038593    -0.2536523    -1.1458961
C          -0.5840894    -0.6357564     1.0605250
H          -0.8814822    -1.3445811     1.8314595
C           5.8850495     0.4940010     0.4448943
H           6.8799900     0.6823604     0.8374647
C           4.7623430     0.9942851     1.1039237
H           4.8788953     1.5774558     2.0135332
N           0.5953811    -0.8639502     0.4731075
C           3.4780592     0.7598166     0.6078327
H           2.6106227     1.1569475     1.1238243
C           3.3287811     0.0106435    -0.5602057
C           4.4433942    -0.4973092    -1.2310394
H           4.2915088    -1.0753014    -2.1368570
C           5.7175783    -0.2511446    -0.7255430
H           6.5836146    -0.6469744    -1.2491876
21
007_C10H8N2O_0-5-6-16 (120,) energy =    -570.5935147
N           0.1576266     1.1294133    -0.9518037
C          -1.0228657     1.2225267    -0.3273376
H          -1.6842553     2.0154932    -0.6722484
C          -1.3929335     0.3725396     0.7120258
H          -2.3501625     0.4613494     1.2135927
C           0.9523462     0.1469983    -0.5287771
O           2.1126312     0.0005406    -1.2281502
C          -0.4563287    -0.5939410     1.0760198
H          -0.6529943    -1.2968958     1.8838247
C           5.8899566     0.3850021     0.4951549
H           6.8842621     0.4853682     0.9204305
C           4.7944829     0.9809125     1.1211116
H           4.9327141     1.5514388     2.0356628
N           0.7229615    -0.7197312     0.4600514
C           3.5123388     0.8608027     0.5824643
H           2.6657414     1.3342309     1.0680438
C           3.3364390     0.1273292    -0.5918137
C           4.4221020    -0.4744954    -1.2294683
H           4.2498030    -1.0359037    -2.1420368
C           5.6969885    -0.3400558    -0.6833027
H           6.5419368    -0.8085129    -1.1807222
21
007_C10H8N2O_0-5-6-16 (135,) energy =    -570.5951508
N           0.0517078     1.1421483    -1.0187773
C          -1.1309762     1.1294032    -0.3941449
H          -1.8791914     1.8229494    -0.7744288
C          -1.4027450     0.2968719     0.6896081
H          -2.3635331     0.3026151     1.1919696
C           0.9544892     0.2789389    -0.5507438
O           2.1203178     0.2514145    -1.2492480
C          -0.3626194    -0.5379175     1.0945519
H          -0.4784097    -1.2188283     1.9362648
C           5.8934891     0.2823257     0.5251276
H           6.8875613     0.2964251     0.9625476
C           4.8433251     0.9617016     1.1455682
H           5.0183831     1.5104806     2.0670359
N           0.8233089    -0.5602966     0.4792660
C           3.5633247     0.9531611     0.5908062
H           2.7505952     1.4894320     1.0689741
C           3.3426545     0.2462216    -0.5919807
C           4.3809073    -0.4364143    -1.2242076
H           4.1741592    -0.9721593    -2.1450124
C           5.6570285    -0.4126877    -0.6626229
H           6.4668541    -0.9438726    -1.1553055
21
007_C10H8N2O_0-5-6-16 (150,) energy =    -570.5967063
N          -0.0257002     1.1279844    -1.0769237
C          -1.2108595     1.0118511    -0.4721033
H          -2.0246774     1.5944053    -0.9011837
C          -1.4128373     0.2087469     0.6501299
H          -2.3792978     0.1302837     1.1349861
C           0.9607482     0.4006447    -0.5453787
O           2.1327086     0.4946178    -1.2214620
C          -0.2955266    -0.4815160     1.1134644
H          -0.3529594    -1.1310499     1.9854709
C           5.8983955     0.1791006     0.5409544
H           6.8914497     0.1078977     0.9752723
C           4.9088254     0.9354103     1.1734664
H           5.1311267     1.4573765     2.1002549
N           0.9005315    -0.3979732     0.5219400
C           3.6318163     1.0369788     0.6225985
H           2.8635374     1.6302066     1.1069162
C           3.3525555     0.3627308    -0.5664578
C           4.3286533    -0.3936169    -1.2109528
H           4.0774901    -0.8981925    -2.1383276
C           5.6046536    -0.4810373    -0.6532513
H           6.3679805    -1.0697472    -1.1546302
21
007_C10H8N2O_0-5-6-16 (165,) energy =    -570.5977387
N          -0.0484820     1.1182950    -1.1168477
C          -1.2354085     0.8887551    -0.5519924
H          -2.0905568     1.3630534    -1.0312972
C          -1.3939351     0.0985975     0.5873221
H          -2.3649097    -0.0744115     1.0372347
C           0.9917791     0.5261425    -0.5210953
O           2.1701483     0.7564825    -1.1478988
C          -0.2277695    -0.4512199     1.1116872
H          -0.2477103    -1.0820860     1.9989830
C           5.9088809     0.0561717     0.5617251
H           6.8958030    -0.1121755     0.9832334
C           5.0086685     0.9106991     1.2035678
H           5.2947508     1.4104355     2.1250481
N           0.9760329    -0.2478424     0.5652896
C           3.7416584     1.1361212     0.6672930
H           3.0387684     1.8033132     1.1549277
C           3.3825875     0.4886802    -0.5143741
C           4.2682747    -0.3627393    -1.1686231
H           3.9580018    -0.8411442    -2.0920123
C           5.5363901    -0.5759946    -0.6252418
H           6.2315546    -1.2389312    -1.1330155
21
007_C10H8N2O_0-5-6-16 (180,) energy =    -570.5979888
N          -0.0676430     1.2231832    -1.0488026
C          -1.2428519     0.7826962    -0.5958413
H          -2.1252944     1.1949987    -1.0829508
C          -1.3578084    -0.1489207     0.4368484
H          -2.3206780    -0.4963162     0.7937076
C           1.0063201     0.7079652    -0.4423114
O           2.1774765     1.1809737    -0.9307166
C          -0.1599503    -0.6048749     0.9793068
H          -0.1456077    -1.3340120     1.7879312
C           5.8743681    -0.0509921     0.5571870
H           6.8499630    -0.3542808     0.9264917
C           5.2119448     1.0319906     1.1396300
H           5.6700099     1.5737703     1.9626222
N           1.0348514    -0.1847678     0.5489425
C           3.9603915     1.4279084     0.6670762
H           3.4336171     2.2722839     1.1003457
C           3.3830073     0.7271526    -0.3882693
C           4.0309646    -0.3506402    -0.9842445
H           3.5572762    -0.8666500    -1.8133565
C           5.2828704    -0.7386314    -0.5043450
H           5.7964576    -1.5781950    -0.9647435
