21
007_C10H8N2O_5-6-16-17 (-165,) energy =    -570.5964803
N           0.7939212     0.9691691     0.3969705
C          -0.4661323     1.3375668     0.6633780
H          -0.6021281     2.3712065     0.9770702
C          -1.5434742     0.4679129     0.5499779
H          -2.5593109     0.7769414     0.7680729
C           0.9594573    -0.2965309     0.0119339
O           2.1800651    -0.7687975    -0.3155745
C          -1.2340200    -0.8316903     0.1404147
H          -2.0120350    -1.5851773     0.0260505
C           6.0216694     0.8332020    -0.0068302
H           7.0372655     1.2129834     0.0586516
C           4.9974767     1.4318889     0.7252860
H           5.2139293     2.2819379     1.3670418
N           0.0071722    -1.2293032    -0.1317911
C           3.6829448     0.9616569     0.6544219
H           2.8935688     1.4401391     1.2139132
C           3.4061272    -0.1286227    -0.1740657
C           4.4264817    -0.7455490    -0.9057045
H           4.1770355    -1.5995018    -1.5272687
C           5.7288031    -0.2617637    -0.8236675
H           6.5151886    -0.7441413    -1.3977289
21
007_C10H8N2O_5-6-16-17 (-150,) energy =    -570.5971728
N           0.8372090     0.9620343     0.1633484
C          -0.4110853     1.3992591     0.3685288
H          -0.5296877     2.4783984     0.4516049
C          -1.5010252     0.5413160     0.4676027
H          -2.5082579     0.9062952     0.6328741
C           0.9773121    -0.3599397     0.0614112
O           2.1926388    -0.8952989    -0.1927391
C          -1.2161287    -0.8200662     0.3441855
H          -2.0048068    -1.5681243     0.4105827
C           5.9606005     0.8842901    -0.0016556
H           6.9571704     1.3142658     0.0417962
C           4.9678619     1.3221244     0.8764369
H           5.1914525     2.0924019     1.6097065
N           0.0156968    -1.2877905     0.1424919
C           3.6816283     0.7815793     0.8341527
H           2.9159587     1.1284221     1.5147085
C           3.3970123    -0.2037835    -0.1131039
C           4.3837706    -0.6626187    -0.9870455
H           4.1315990    -1.4446585    -1.6960344
C           5.6636485    -0.1134305    -0.9319008
H           6.4282672    -0.4699148    -1.6166533
21
007_C10H8N2O_5-6-16-17 (-135,) energy =    -570.5977539
N           0.8949532     0.9089559     0.0704122
C          -0.3470107     1.3934309     0.1849971
H          -0.4409555     2.4773520     0.1412555
C          -1.4609256     0.5758366     0.3465701
H          -2.4630511     0.9789522     0.4377777
C           1.0029874    -0.4189518     0.1233667
O           2.2180538    -0.9980183    -0.0179085
C          -1.2073355    -0.7964030     0.3856263
H          -2.0164651    -1.5145867     0.5103283
C           5.9104793     0.9402597    -0.0399612
H           6.8875138     1.4149827    -0.0461010
C           4.9806512     1.2617529     0.9516979
H           5.2340348     1.9858131     1.7213259
N           0.0179668    -1.3113096     0.2770943
C           3.7237476     0.6578324     0.9720935
H           3.0020051     0.9041780     1.7416066
C           3.4035788    -0.2671915    -0.0220702
C           4.3235392    -0.6065046    -1.0119774
H           4.0452291    -1.3431610    -1.7588072
C           5.5789930     0.0022528    -1.0186714
H           6.2967969    -0.2603918    -1.7908889
21
007_C10H8N2O_5-6-16-17 (-120,) energy =    -570.5979681
N           0.9485869     0.8569039     0.0139558
C          -0.2888845     1.3656429     0.0260126
H          -0.3626345     2.4417135    -0.1233287
C          -1.4224555     0.5811107     0.2137297
H          -2.4206612     1.0037447     0.2213524
C           1.0304446    -0.4614456     0.1962472
O           2.2453844    -1.0586730     0.1791127
C          -1.1943349    -0.7845396     0.3922363
H          -2.0204365    -1.4772242     0.5465769
C           5.8729085     0.9816752    -0.0807997
H           6.8326292     1.4865567    -0.1446637
C           5.0360904     1.2053315     1.0157536
H           5.3439478     1.8833515     1.8070880
N           0.0255959    -1.3235296     0.3874656
C           3.8042013     0.5591253     1.1087780
H           3.1485280     0.7214756     1.9573670
C           3.4166341    -0.3063273     0.0868929
C           4.2403335    -0.5449965    -1.0094164
H           3.9111359    -1.2359269    -1.7789155
C           5.4736909     0.1042846    -1.0897560
H           6.1209192    -0.0790750    -1.9430157
21
007_C10H8N2O_5-6-16-17 (-105,) energy =    -570.5979995
N           0.9778806     0.8136244    -0.0522837
C          -0.2552965     1.3251139    -0.1412017
H          -0.3155142     2.3787076    -0.4095431
C          -1.4009488     0.5700916     0.0898303
H          -2.3955644     0.9945538     0.0144046
C           1.0420070    -0.4774094     0.2762614
O           2.2548628    -1.0703984     0.3788215
C          -1.1901650    -0.7685708     0.4249742
H          -2.0268376    -1.4368670     0.6236009
C           5.8398268     1.0064264    -0.1050626
H           6.7879563     1.5228958    -0.2255002
C           5.1187079     1.1333223     1.0848091
H           5.5048660     1.7486524     1.8927975
N           0.0248797    -1.3098169     0.5238284
C           3.9030541     0.4691393     1.2466958
H           3.3340630     0.5512385     2.1671965
C           3.4176653    -0.3161574     0.2037175
C           4.1243204    -0.4575985    -0.9866002
H           3.7212441    -1.0875161    -1.7732060
C           5.3414820     0.2093492    -1.1369795
H           5.8999615     0.1026662    -2.0628563
21
007_C10H8N2O_5-6-16-17 (-90,) energy =    -570.5979752
N           0.9907381     0.7937009    -0.0857996
C          -0.2411725     1.2781354    -0.2805652
H          -0.2978308     2.3027502    -0.6448008
C          -1.3898447     0.5316744    -0.0370886
H          -2.3833672     0.9342440    -0.1982588
C           1.0502403    -0.4619286     0.3601990
O           2.2624892    -1.0219328     0.5837474
C          -1.1836484    -0.7683470     0.4278409
H          -2.0230323    -1.4271117     0.6459265
C           5.8351971     1.0088712    -0.1287129
H           6.7798930     1.5153141    -0.3052805
C           5.2420820     1.0573127     1.1345186
H           5.7229769     1.6001446     1.9436508
N           0.0299583    -1.2826249     0.6323240
C           4.0297781     0.4066588     1.3679290
H           3.5552104     0.4258008     2.3438348
C           3.4226819    -0.2867549     0.3249138
C           4.0031014    -0.3511169    -0.9388858
H           3.5090393    -0.9109648    -1.7265844
C           5.2148747     0.3034463    -1.1622380
H           5.6752950     0.2582824    -2.1454060
21
007_C10H8N2O_5-6-16-17 (-75,) energy =    -570.5979815
N           0.9758392     0.7934985    -0.1447105
C          -0.2572319     1.2251853    -0.4334427
H          -0.3209640     2.2063093    -0.9014406
C          -1.3988937     0.4795243    -0.1566842
H          -2.3935364     0.8391968    -0.3942542
C           1.0443032    -0.4085500     0.4288790
O           2.2564248    -0.9116288     0.7620288
C          -1.1839824    -0.7610909     0.4461405
H          -2.0173888    -1.4145843     0.7000195
C           5.8562002     0.9897645    -0.1427581
H           6.8085261     1.4621437    -0.3663721
C           5.3809367     0.9617691     1.1692164
H           5.9607792     1.4107373     1.9709683
N           0.0312325    -1.2223637     0.7453563
C           4.1577870     0.3553586     1.4614029
H           3.7710681     0.3160801     2.4747188
C           3.4222382    -0.2187881     0.4290723
C           3.8858539    -0.2075204    -0.8848138
H           3.2956855    -0.6726472    -1.6676268
C           5.1069365     0.4040742    -1.1664505
H           5.4750512     0.4186018    -2.1886869
21
007_C10H8N2O_5-6-16-17 (-60,) energy =    -570.5979257
N           0.9422870     0.7949780    -0.2260512
C          -0.2937061     1.1559031    -0.5896582
H          -0.3710879     2.0796044    -1.1610177
C          -1.4216105     0.4097609    -0.2627634
H          -2.4187767     0.7117124    -0.5620540
C           1.0291938    -0.3364723     0.4741144
O           2.2405560    -0.7618404     0.9035725
C          -1.1890511    -0.7528093     0.4741959
H          -2.0103437    -1.4013129     0.7758197
C           5.8917113     0.9547923    -0.1513365
H           6.8573510     1.3792058    -0.4110995
C           5.5067799     0.8523391     1.1860526
H           6.1713973     1.1955552     1.9740922
N           0.0298381    -1.1423056     0.8501649
C           4.2656446     0.3083882     1.5211327
H           3.9463521     0.2140556     2.5541134
C           3.4188167    -0.1310607     0.5071530
C           3.7909683    -0.0446201    -0.8339501
H           3.1195056    -0.3990260    -1.6080449
C           5.0312292     0.5048399    -1.1560825
H           5.3269946     0.5773226    -2.1991395
21
007_C10H8N2O_5-6-16-17 (-45,) energy =    -570.5975823
N           0.8897868     0.7911327    -0.3196684
C          -0.3505152     1.0703513    -0.7372107
H          -0.4466026     1.9254522    -1.4044188
C          -1.4597722     0.3263076    -0.3488780
H          -2.4605095     0.5616224    -0.6927087
C           1.0014655    -0.2559310     0.4980971
O           2.2113162    -0.5893581     1.0035993
C          -1.2032318    -0.7442974     0.5096946
H          -2.0084839    -1.3850827     0.8660581
C           5.9333516     0.8978178    -0.1507440
H           6.9168278     1.2647394    -0.4302687
C           5.6032816     0.7232645     1.1941670
H           6.3287535     0.9520519     1.9699812
N           0.0203585    -1.0505499     0.9418957
C           4.3393426     0.2547173     1.5522105
H           4.0610825     0.1073473     2.5908322
C           3.4088854    -0.0391570     0.5563871
C           3.7244104     0.1225381    -0.7932336
H           2.9950479    -0.1101865    -1.5588243
C           4.9915811     0.5945853    -1.1362715
H           5.2419422     0.7231705    -2.1858513
21
007_C10H8N2O_5-6-16-17 (-30,) energy =    -570.5969345
N           0.8413337     0.7506334    -0.4381475
C          -0.4064895     0.9403628    -0.8845269
H          -0.5251294     1.6994838    -1.6559621
C          -1.4949098     0.2233423    -0.4008224
H          -2.5015700     0.3855406    -0.7687411
C           0.9829188    -0.1788765     0.5069962
O           2.1942205    -0.4135713     1.0582016
C          -1.2090901    -0.7220103     0.5866342
H          -1.9967794    -1.3338119     1.0239853
C           5.9897906     0.8389315    -0.1405491
H           6.9923639     1.1467582    -0.4234294
C           5.6831667     0.5793422     1.1967971
H           6.4453853     0.6818504     1.9643471
N           0.0215655    -0.9366076     1.0504970
C           4.3959408     0.1871495     1.5575610
H           4.1351239    -0.0245303     2.5895440
C           3.4116004     0.0544118     0.5756198
C           3.7018824     0.3065896    -0.7666632
H           2.9364856     0.2103706    -1.5235607
C           4.9973938     0.6980381    -1.1111221
H           5.2264556     0.8946789    -2.1551210
21
007_C10H8N2O_5-6-16-17 (-15,) energy =    -570.5964027
N           0.8225016     0.5837613    -0.6137011
C          -0.4362476     0.6926333    -1.0595030
H          -0.5676998     1.2673053    -1.9747807
C          -1.5174372     0.1152197    -0.4063800
H          -2.5319641     0.2098557    -0.7761917
C           0.9828462    -0.1190436     0.5078936
O           2.2006327    -0.2736514     1.0665068
C          -1.2136652    -0.5987374     0.7559546
H          -1.9953416    -1.0893900     1.3342111
C           6.0543432     0.8190283    -0.1073304
H           7.0725462     1.0857607    -0.3757950
C           5.7522046     0.4097310     1.1940456
H           6.5329643     0.3537251     1.9476703
N           0.0255301    -0.7251587     1.2253595
C           4.4467821     0.0695561     1.5349021
H           4.1891726    -0.2557217     2.5376741
C           3.4330625     0.1394231     0.5727703
C           3.7178940     0.5453709    -0.7334472
H           2.9321745     0.6095926    -1.4702821
C           5.0360781     0.8810993    -1.0571258
H           5.2593838     1.1973207    -2.0727541
21
007_C10H8N2O_5-6-16-17 (0,) energy =    -570.5962596
N           0.8192877     0.4252557    -0.7163484
C          -0.4359546     0.4646545    -1.1840006
H          -0.5543567     0.8571166    -2.1925277
C          -1.5282356     0.0357743    -0.4420356
H          -2.5395268     0.0721293    -0.8305373
C           0.9652449    -0.0553318     0.5189706
O           2.1783523    -0.1456446     1.0989373
C          -1.2405835    -0.4459901     0.8382201
H          -2.0326332    -0.8044086     1.4942359
C           6.0621132     0.8069069    -0.0989478
H           7.0876116     1.0404212    -0.3706231
C           5.7703184     0.2624127     1.1547715
H           6.5667106     0.0681159     1.8679936
N          -0.0060213    -0.4982226     1.3318676
C           4.4561092    -0.0352965     1.4992503
H           4.2051967    -0.4584155     2.4665730
C           3.4213164     0.2106911     0.5885156
C           3.6950815     0.7546008    -0.6693090
H           2.8949977     0.9422512    -1.3681872
C           5.0233771     1.0469124    -0.9961044
H           5.2376330     1.4700732    -1.9741084
21
007_C10H8N2O_5-6-16-17 (15,) energy =    -570.5964027
N           0.8718665     0.2607399    -0.7420409
C          -0.3719643     0.2348920    -1.2392616
H          -0.4609965     0.4364233    -2.3054311
C          -1.4885784    -0.0314477    -0.4575009
H          -2.4906225    -0.0497716    -0.8704842
C           0.9809154     0.0125780     0.5634122
O           2.1847754    -0.0146580     1.1705646
C          -1.2384019    -0.2706340     0.8964836
H          -2.0514260    -0.4851914     1.5886559
C           6.0679744     0.8076884    -0.1206735
H           7.0928744     1.0119218    -0.4170658
C           5.7989752     0.1409092     1.0774979
H           6.6127857    -0.1776240     1.7231739
N          -0.0152299    -0.2528499     1.4212579
C           4.4849364    -0.1198421     1.4533943
H           4.2510836    -0.6318030     2.3812667
C           3.4294818     0.2848458     0.6284142
C           3.6802664     0.9535838    -0.5723934
H           2.8651463     1.2540689    -1.2124955
C           5.0074488     1.2080120    -0.9316217
H           5.2042993     1.7279391    -1.8655750
21
007_C10H8N2O_5-6-16-17 (30,) energy =    -570.5969345
N           0.9516180     0.0185818    -0.7168679
C          -0.2663428    -0.0613607    -1.2668290
H          -0.2957788    -0.0859666    -2.3549372
C          -1.4310099    -0.1142393    -0.5095139
H          -2.4124124    -0.1797771    -0.9651373
C           0.9842094     0.0476613     0.6155926
O           2.1665530     0.0792241     1.2691909
C          -1.2571899    -0.0738622     0.8756228
H          -2.1111506    -0.1071598     1.5506598
C           6.0186969     0.8042693    -0.1618858
H           7.0344143     0.9887477    -0.4998525
C           5.7825646     0.0033826     0.9573642
H           6.6131337    -0.4401460     1.4996314
N          -0.0594682     0.0080217     1.4539832
C           4.4787937    -0.2338044     1.3872882
H           4.2707953    -0.8488479     2.2569343
C           3.4069257     0.3328910     0.6939267
C           3.6251656     1.1390309    -0.4250354
H           2.7938179     1.5703234    -0.9643524
C           4.9382964     1.3671749    -0.8420027
H           5.1113127     1.9944962    -1.7124016
21
007_C10H8N2O_5-6-16-17 (45,) energy =    -570.5975822
N           1.0157713    -0.0700695    -0.6563375
C          -0.1748450    -0.2308548    -1.2456129
H          -0.1549796    -0.3905290    -2.3225101
C          -1.3729771    -0.2023902    -0.5395596
H          -2.3321955    -0.3343499    -1.0269531
C           0.9855910     0.1237072     0.6624038
O           2.1432061     0.2558020     1.3500946
C          -1.2629741     0.0092663     0.8360406
H          -2.1464762     0.0492175     1.4715415
C           5.9751733     0.7619952    -0.2177083
H           6.9846602     0.8964656    -0.5956559
C           5.7326594    -0.1047154     0.8491519
H           6.5525587    -0.6493380     1.3092545
N          -0.0928199     0.1754668     1.4531758
C           4.4357852    -0.2788133     1.3319358
H           4.2232450    -0.9440907     2.1626635
C           3.3839937     0.4204963     0.7415936
C           3.6093771     1.2964921    -0.3209563
H           2.7857247     1.8360411    -0.7711994
C           4.9113832     1.4585379    -0.7950469
H           5.0920700     2.1388116    -1.6229436
21
007_C10H8N2O_5-6-16-17 (60,) energy =    -570.5979258
N           1.0710181    -0.1257142    -0.5955200
C          -0.0940947    -0.3799119    -1.2021922
H          -0.0332862    -0.6511651    -2.2549922
C          -1.3166465    -0.3098040    -0.5417324
H          -2.2549630    -0.5183422    -1.0428941
C           0.9888250     0.2047605     0.6936593
O           2.1226411     0.4538331     1.3902343
C          -1.2597667     0.0467417     0.8067513
H          -2.1656358     0.1278913     1.4058102
C           5.9410326     0.7138075    -0.2660922
H           6.9465998     0.7900925    -0.6699210
C           5.6576450    -0.2081258     0.7423666
H           6.4414975    -0.8533841     1.1293310
N          -0.1160183     0.3090035     1.4406291
C           4.3655962    -0.3080862     1.2612139
H           4.1223356    -1.0140181     2.0488511
C           3.3654972     0.5222806     0.7625214
C           3.6329457     1.4553927    -0.2386260
H           2.8412833     2.0975101    -0.6082578
C           4.9263263     1.5424888    -0.7519622
H           5.1415361     2.2658289    -1.5337315
21
007_C10H8N2O_5-6-16-17 (75,) energy =    -570.5979815
N           1.1082767     0.1906630     0.9082597
C          -0.0068244     0.0307479     1.6301745
H           0.1094406     0.1096528     2.7099637
C          -1.2474912    -0.2189718     1.0519157
H          -2.1450264    -0.3462808     1.6463405
C           0.9563709     0.0931874    -0.4131169
O           2.0361413     0.2536675    -1.2141523
C          -1.2648211    -0.2954849    -0.3418404
H          -2.1903454    -0.4874776    -0.8827822
C           5.9090387     0.7894663     0.2370212
H           6.9278417     0.9295220     0.5870135
C           5.2125991     1.8567637    -0.3319993
H           5.6859293     2.8300904    -0.4278613
N          -0.1719733    -0.1430984    -1.0911815
C           3.9032321     1.6813195    -0.7836395
H           3.3443309     2.4948564    -1.2349606
C           3.3049957     0.4311638    -0.6587130
C           3.9886950    -0.6473001    -0.1011878
H           3.5003530    -1.6134181    -0.0265171
C           5.2947179    -0.4604009     0.3502352
H           5.8344850    -1.2958463     0.7876928
21
007_C10H8N2O_5-6-16-17 (90,) energy =    -570.5979752
N           1.1126557     0.2430221     0.8777337
C          -0.0124041     0.1904106     1.6000123
H           0.0970743     0.3810515     2.6664943
C          -1.2542345    -0.0890870     1.0381664
H          -2.1596926    -0.1291294     1.6328656
C           0.9688264     0.0080727    -0.4273229
O           2.0621201     0.0458366    -1.2250752
C          -1.2620334    -0.3148231    -0.3394091
H          -2.1877167    -0.5408771    -0.8667682
C           5.8879158     0.8089252     0.2503868
H           6.8944475     1.0056755     0.6085682
C           5.0920664     1.8602406    -0.2092276
H           5.4764837     2.8765290    -0.2107272
N          -0.1595578    -0.2705738    -1.0888928
C           3.7991496     1.6132614    -0.6727779
H           3.1664766     2.4146766    -1.0407884
C           3.3167871     0.3076703    -0.6675967
C           4.0987164    -0.7533598    -0.2192438
H           3.6959847    -1.7610089    -0.2403771
C           5.3897533    -0.4958264     0.2429617
H           6.0072446    -1.3178988     0.5944549
21
007_C10H8N2O_5-6-16-17 (105,) energy =    -570.5979995
N           1.0962082     0.2805112     0.8810953
C          -0.0457977     0.3323711     1.5763571
H           0.0463841     0.6196556     2.6226187
C          -1.2833507     0.0381841     1.0125585
H          -2.2026010     0.0827590     1.5853662
C           0.9738066    -0.0727299    -0.3991633
O           2.0854480    -0.1555299    -1.1676482
C          -1.2679383    -0.3180884    -0.3371091
H          -2.1885244    -0.5653828    -0.8638544
C           5.8881001     0.8285406     0.2361896
H           6.8892362     1.0789721     0.5756090
C           4.9873846     1.8426470    -0.0987858
H           5.2863882     2.8843472    -0.0209905
N          -0.1483769    -0.3780596    -1.0596304
C           3.7022701     1.5270044    -0.5392544
H           2.9929705     2.3023908    -0.8103307
C           3.3300108     0.1881589    -0.6341754
C           4.2151941    -0.8350490    -0.3090341
H           3.8944330    -1.8673209    -0.4067116
C           5.5000621    -0.5079726     0.1280614
H           6.1975575    -1.3013058     0.3823278
21
007_C10H8N2O_5-6-16-17 (120,) energy =    -570.5979681
N           1.0602892     0.3560987     0.8917843
C          -0.1037479     0.4931190     1.5371842
H          -0.0432753     0.8926929     2.5482994
C          -1.3248657     0.1481793     0.9665718
H          -2.2622500     0.2630042     1.4987538
C           0.9779688    -0.1348861    -0.3452018
O           2.1120356    -0.3226611    -1.0605241
C          -1.2679220    -0.3546526    -0.3345136
H          -2.1728757    -0.6511423    -0.8629356
C           5.9138399     0.8405013     0.1975850
H           6.9153499     1.1350716     0.4980070
C           4.9255816     1.8105744     0.0104499
H           5.1569804     2.8611322     0.1636825
N          -0.1253380    -0.5022522    -1.0064352
C           3.6383134     1.4429141    -0.3788481
H           2.8645418     2.1874516    -0.5315217
C           3.3502841     0.0923345    -0.5697342
C           4.3241589    -0.8863426    -0.3933940
H           4.0667647    -1.9267035    -0.5645118
C           5.6109681    -0.5060814    -0.0077579
H           6.3751901    -1.2659684     0.1304966
21
007_C10H8N2O_5-6-16-17 (135,) energy =    -570.5977539
N           1.0058530     0.4212124     0.9113761
C          -0.1829091     0.6343180     1.4873422
H          -0.1598450     1.1272416     2.4579694
C          -1.3834368     0.2520837     0.8974140
H          -2.3412316     0.4290245     1.3732291
C           0.9708876    -0.1839157    -0.2762327
O           2.1285399    -0.4699625    -0.9162885
C          -1.2777454    -0.3722390    -0.3467385
H          -2.1633713    -0.7055227    -0.8858272
C           5.9421137     0.8549882     0.1288829
H           6.9474280     1.1864418     0.3727560
C           4.8905984     1.7738117     0.0913487
H           5.0766713     2.8232160     0.3033129
N          -0.1093773    -0.5969911    -0.9489731
C           3.5957802     1.3616730    -0.2225009
H           2.7794106     2.0732070    -0.2542169
C           3.3632377     0.0120100    -0.4887309
C           4.4030390    -0.9151515    -0.4656267
H           4.1870399    -1.9536941    -0.6950648
C           5.6945780    -0.4890354    -0.1539201
H           6.5060766    -1.2112730    -0.1341789
21
007_C10H8N2O_5-6-16-17 (150,) energy =    -570.5971728
N           0.9437784     0.5103092     0.9232329
C          -0.2719439     0.7764782     1.4158615
H          -0.2965863     1.3758179     2.3245402
C          -1.4414353     0.3194055     0.8181797
H          -2.4211147     0.5400257     1.2263397
C           0.9687440    -0.2246306    -0.1889233
O           2.1511195    -0.5852422    -0.7367945
C          -1.2747693    -0.4387001    -0.3425374
H          -2.1326112    -0.8376785    -0.8819231
C           5.9835921     0.8609180     0.0520673
H           6.9945116     1.2167728     0.2290822
C           4.9000574     1.7317805     0.1778701
H           5.0662733     2.7708323     0.4494255
N          -0.0787853    -0.7188211    -0.8602144
C           3.5943636     1.2913844    -0.0448689
H           2.7589823     1.9704901     0.0584255
C           3.3849039    -0.0456200    -0.3880526
C           4.4597482    -0.9240941    -0.5328826
H           4.2602649    -1.9511638    -0.8212861
C           5.7577835    -0.4689222    -0.3077900
H           6.5918794    -1.1566115    -0.4172027
21
007_C10H8N2O_5-6-16-17 (165,) energy =    -570.5964803
N           0.8559641     0.7217221     0.8250405
C          -0.3884277     1.0057184     1.2315709
H          -0.4738194     1.7766220     1.9955895
C          -1.5104692     0.3648728     0.7215147
H          -2.5130766     0.6026575     1.0580066
C           0.9596689    -0.2231068    -0.1099502
O           2.1657169    -0.6156577    -0.5698408
C          -1.2648483    -0.6032697    -0.2556426
H          -2.0819676    -1.1564522    -0.7165469
C           6.0347247     0.8414993     0.0017274
H           7.0560152     1.1911364     0.1228821
C           4.9633235     1.6654179     0.3432570
H           5.1480713     2.6637359     0.7312134
N          -0.0408340    -0.9087251    -0.6813497
C           3.6410834     1.2355447     0.1981986
H           2.8178026     1.8749269     0.4783558
C           3.4058729    -0.0494387    -0.2969635
C           4.4716485    -0.8824471    -0.6537377
H           4.2506439    -1.8686935    -1.0490539
C           5.7813222    -0.4374849    -0.5002254
H           6.6038114    -1.0916809    -0.7762297
21
007_C10H8N2O_5-6-16-17 (180,) energy =    -570.5962594
N           0.8013951     0.8809893     0.6454658
C          -0.4589852     1.1943611     0.9757927
H          -0.5867031     2.1220891     1.5309344
C          -1.5446942     0.3972144     0.6392295
H          -2.5602278     0.6605546     0.9118218
C           0.9592767    -0.2552037    -0.0345022
O           2.1783774    -0.6773469    -0.4237227
C          -1.2445854    -0.7670874    -0.0737406
H          -2.0305504    -1.4551856    -0.3818972
C           6.0529378     0.8217332    -0.0139949
H           7.0765472     1.1755599     0.0699530
C           5.0050690     1.5567886     0.5364998
H           5.2107302     2.4906822     1.0531818
N          -0.0046986    -1.1066467    -0.4170260
C           3.6790471     1.1216436     0.4413676
H           2.8717404     1.6945452     0.8701108
C           3.4171309    -0.0792106    -0.2236052
C           4.4609674    -0.8276958    -0.7813112
H           4.2198155    -1.7553023    -1.2903388
C           5.7725046    -0.3770630    -0.6754896
H           6.5760363    -0.9644064    -1.1114043
