20
329_C8H11N_0-4-15-16 (-165,) energy =    -366.2174174
C           1.1130180    -0.8855953    -0.0904504
H           0.6430203    -0.3789326     0.7552322
H           0.5795719    -1.8290819    -0.2396312
H           0.9613862    -0.2706734    -0.9916158
N           2.5030616    -1.2075226     0.1750306
H           2.7942522    -2.0869913    -0.2260861
C           5.9319170     1.1838021     0.7956403
H           6.8244393     1.7818311     0.9536050
C           4.6676659     1.7561175     0.9089441
H           4.5863223     2.8101967     1.1663945
C           3.4765462     1.0409846     0.7170208
C           2.1720037     1.7800131     0.9474702
H           2.3807102     2.8292344     1.1785312
H           1.6113467     1.3714845     1.7973852
H           1.5053757     1.7693459     0.0795237
C           3.5740768    -0.3330462     0.3713167
C           4.8606742    -0.9102098     0.2837789
H           4.9366931    -1.9694441     0.0420538
C           6.0189961    -0.1730799     0.4860691
H           6.9860791    -0.6620386     0.3998973
20
329_C8H11N_0-4-15-16 (-150,) energy =    -366.2190826
C           1.1413596    -0.8758183    -0.1826928
H           0.5622410    -0.2887900     0.5330884
H           0.5928902    -1.8060182    -0.3576970
H           1.1795658    -0.3221611    -1.1342214
N           2.4563276    -1.2285020     0.3356866
H           2.7492605    -2.1490598     0.0376332
C           5.9034875     1.1941855     0.6894666
H           6.7973876     1.8041187     0.7808410
C           4.6409467     1.7638244     0.8376894
H           4.5619865     2.8256357     1.0619300
C           3.4523105     1.0276803     0.7375076
C           2.1475198     1.7350999     1.0407989
H           2.3494572     2.7575610     1.3749339
H           1.5957139     1.2335194     1.8451505
H           1.4760428     1.8048781     0.1777308
C           3.5480767    -0.3552320     0.4349149
C           4.8312176    -0.9302443     0.3211027
H           4.9069509    -1.9972921     0.1160798
C           5.9908262    -0.1756164     0.4440770
H           6.9585688    -0.6597091     0.3404398
20
329_C8H11N_0-4-15-16 (-135,) energy =    -366.2206474
C           1.1964426    -0.8674724    -0.2764056
H           0.5781090    -0.1361932     0.2476354
H           0.6028054    -1.7809210    -0.3772870
H           1.4054966    -0.4808386    -1.2867507
N           2.4053059    -1.1974372     0.4781396
H           2.6930251    -2.1509873     0.2937661
C           5.8845599     1.2041847     0.6251174
H           6.7821859     1.8142195     0.6684214
C           4.6306616     1.7805216     0.8217584
H           4.5621570     2.8448410     1.0376015
C           3.4431059     1.0388881     0.7869516
C           2.1418377     1.7249333     1.1371446
H           2.3407080     2.7038094     1.5848265
H           1.5684086     1.1364589     1.8632258
H           1.4940034     1.8931689     0.2678009
C           3.5272499    -0.3463166     0.5014587
C           4.7990311    -0.9262683     0.3339011
H           4.8635914    -1.9950742     0.1349106
C           5.9637980    -0.1688741     0.3967103
H           6.9272526    -0.6523272     0.2568552
20
329_C8H11N_0-4-15-16 (-120,) energy =    -366.2217337
C           1.2678238    -0.9176972    -0.3699187
H           0.7645269     0.0268674    -0.1561527
H           0.5272077    -1.7161044    -0.2607948
H           1.6050685    -0.8949002    -1.4192499
N           2.3514243    -1.1618350     0.5863078
H           2.6297124    -2.1370780     0.5429099
C           5.8576084     1.2079894     0.5695396
H           6.7584571     1.8151052     0.5778249
C           4.6165856     1.7897104     0.8272480
H           4.5616498     2.8527500     1.0531850
C           3.4300871     1.0470275     0.8408065
C           2.1332002     1.7153666     1.2311731
H           2.3294727     2.6267815     1.8051756
H           1.5212949     1.0467772     1.8468903
H           1.5275740     2.0078790     0.3627128
C           3.5013263    -0.3359277     0.5500551
C           4.7570069    -0.9194221     0.3105610
H           4.8079644    -1.9865941     0.1001162
C           5.9258365    -0.1629776     0.3254382
H           6.8820499    -0.6437446     0.1358441
20
329_C8H11N_0-4-15-16 (-105,) energy =    -366.2218107
C           1.3577184    -0.9409729    -0.4552938
H           0.9516336     0.0736802    -0.4740228
H           0.5203906    -1.6311973    -0.3099157
H           1.8144397    -1.1414038    -1.4385717
N           2.2922201    -1.0901404     0.6670580
H           2.5495870    -2.0704252     0.7494837
C           5.8401682     1.2172600     0.5533831
H           6.7483213     1.8136044     0.5381333
C           4.6186762     1.8102453     0.8743633
H           4.5860957     2.8699431     1.1192573
C           3.4271459     1.0773748     0.9182228
C           2.1351377     1.7429892     1.3254287
H           2.3299936     2.6314746     1.9349866
H           1.5098213     1.0513153     1.8992909
H           1.5451653     2.0716004     0.4586479
C           3.4766870    -0.3008916     0.6114090
C           4.7066886    -0.8921043     0.2865985
H           4.7337996    -1.9541907     0.0484931
C           5.8841539    -0.1466988     0.2676373
H           6.8264106    -0.6288776     0.0205977
20
329_C8H11N_0-4-15-16 (-90,) energy =    -366.2206282
C           1.4401263    -1.0055140    -0.5371010
H           1.1095605     0.0147826    -0.7550851
H           0.5476769    -1.6265701    -0.4064136
H           2.0025130    -1.3712430    -1.4124255
N           2.2167809    -1.0155616     0.7104194
H           2.4418686    -1.9829794     0.9346319
C           5.8160787     1.2131210     0.5325658
H           6.7345687     1.7929025     0.4977196
C           4.6201496     1.8213406     0.9153932
H           4.6170793     2.8761364     1.1821086
C           3.4179999     1.1068027     0.9838371
C           2.1405800     1.7845968     1.4154160
H           2.3521001     2.6877180     1.9972685
H           1.5271880     1.1056544     2.0150051
H           1.5299164     2.0897391     0.5543252
C           3.4355229    -0.2645041     0.6530923
C           4.6351369    -0.8676145     0.2510320
H           4.6313847    -1.9232430    -0.0155201
C           5.8247512    -0.1419427     0.2031456
H           6.7477594    -0.6304425    -0.0980753
20
329_C8H11N_0-4-15-16 (-75,) energy =    -366.2211741
C           1.5909135    -1.1547842    -0.7211156
H           1.3029873    -0.2229417    -1.2358798
H           0.6962144    -1.7704533    -0.5828580
H           2.2737553    -1.7013396    -1.3780561
N           2.2283390    -0.9413634     0.5846067
H           1.5504533    -0.5265724     1.2165505
C           5.8578640     1.2337002     0.5974543
H           6.7945029     1.7842220     0.6084496
C           4.6957618     1.8206475     1.0961742
H           4.7336764     2.8328053     1.4936214
C           3.4680366     1.1467950     1.0889918
C           2.2263403     1.8173034     1.6337632
H           2.4272208     2.8651317     1.8763465
H           1.8646099     1.3397457     2.5556661
H           1.3977893     1.7994483     0.9140176
C           3.4226059    -0.1670761     0.5736141
C           4.6003956    -0.7639804     0.1005001
H           4.5551361    -1.7907899    -0.2524000
C           5.8056248    -0.0671635     0.0940603
H           6.7051702    -0.5470630    -0.2827013
20
329_C8H11N_0-4-15-16 (-60,) energy =    -366.2228443
C           1.6318652    -1.2866893    -0.7295468
H           1.4684578    -0.4763837    -1.4586575
H           0.6800451    -1.7962333    -0.5504264
H           2.3118946    -2.0136303    -1.1823065
N           2.1649642    -0.8241146     0.5548467
H           1.4475440    -0.3125716     1.0556027
C           5.8605483     1.2291182     0.6083811
H           6.8126159     1.7515990     0.6339755
C           4.7188481     1.8232315     1.1445320
H           4.7875135     2.8145916     1.5877309
C           3.4727436     1.1867598     1.1207910
C           2.2584737     1.8675541     1.7115886
H           2.5035369     2.8839329     2.0338163
H           1.8694856     1.3368055     2.5924127
H           1.4337445     1.9443539     0.9897232
C           3.3798019    -0.1005556     0.5425639
C           4.5382195    -0.7067303     0.0294996
H           4.4715252    -1.7121464    -0.3764851
C           5.7625675    -0.0448378     0.0475390
H           6.6429300    -0.5338656    -0.3616530
20
329_C8H11N_0-4-15-16 (-45,) energy =    -366.2246625
C           1.6684733    -1.4018969    -0.7043991
H           1.7306170    -0.7795628    -1.6112278
H           0.6313314    -1.7205450    -0.5655724
H           2.2634718    -2.3051872    -0.8724973
N           2.1065111    -0.7102040     0.5065112
H           1.3649308    -0.1237625     0.8676331
C           5.8562163     1.2295653     0.6178873
H           6.8207934     1.7269871     0.6618917
C           4.7299841     1.8257542     1.1861450
H           4.8233981     2.7934720     1.6748749
C           3.4707719     1.2210327     1.1438413
C           2.2775153     1.8958700     1.7802374
H           2.5591440     2.8661580     2.1996567
H           1.8518317     1.2990858     2.5993303
H           1.4679537     2.0782626     1.0583901
C           3.3401154    -0.0351230     0.5024874
C           4.4809416    -0.6434146    -0.0480695
H           4.3930632    -1.6198331    -0.5144731
C           5.7222453    -0.0133256     0.0004893
H           6.5870094    -0.5037235    -0.4394159
20
329_C8H11N_0-4-15-16 (-30,) energy =    -366.2264242
C           1.7257347    -1.5054062    -0.6742827
H           1.9292751    -1.0687993    -1.6652096
H           0.6606042    -1.7432360    -0.6066623
H           2.2750900    -2.4506199    -0.6020066
N           2.0736257    -0.6200387     0.4288670
H           1.3164385     0.0079671     0.6631829
C           5.8572744     1.2341006     0.6303353
H           6.8298160     1.7126933     0.6992953
C           4.7380804     1.8214536     1.2243427
H           4.8456957     2.7632201     1.7588108
C           3.4719584     1.2382746     1.1559008
C           2.2859472     1.8917819     1.8247661
H           2.5836079     2.8164198     2.3278210
H           1.8289399     1.2371307     2.5798179
H           1.4947516     2.1567222     1.1068300
C           3.3215669     0.0144930     0.4552842
C           4.4512609    -0.5814171    -0.1308370
H           4.3506694    -1.5252868    -0.6567156
C           5.7034923     0.0256740    -0.0454435
H           6.5599964    -0.4553724    -0.5111881
20
329_C8H11N_0-4-15-16 (-15,) energy =    -366.2272572
C           1.7330769    -1.5626984    -0.6189793
H           1.9703523    -1.2869632    -1.6598774
H           0.6678375    -1.8009792    -0.5562670
H           2.2902092    -2.4747904    -0.3765293
N           2.0306939    -0.5161932     0.3412960
H           1.2754013     0.1426912     0.4700012
C           5.8636945     1.2092265     0.6487783
H           6.8481279     1.6575148     0.7464294
C           4.7551535     1.8009008     1.2603414
H           4.8833730     2.7150173     1.8366984
C           3.4764455     1.2536459     1.1609811
C           2.2994646     1.9028849     1.8477613
H           2.6166647     2.7778243     2.4227029
H           1.8002277     1.2099315     2.5386337
H           1.5360972     2.2484691     1.1332858
C           3.2996298     0.0624046     0.4101254
C           4.4145851    -0.5303779    -0.2064564
H           4.2942147    -1.4398827    -0.7853666
C           5.6827075     0.0380049    -0.0820462
H           6.5287977    -0.4419059    -0.5676668
20
329_C8H11N_0-4-15-16 (0,) energy =    -366.2267247
C           1.7279193    -1.5514031    -0.6463537
H           2.0693013    -1.3885796    -1.6752144
H           0.6467370    -1.7131238    -0.6744527
H           2.2051891    -2.4738229    -0.2739674
N           2.0018812    -0.3830921     0.1611552
H           1.3624420    -0.2199251     0.9244400
C           5.8725424     1.1884813     0.6896744
H           6.8640592     1.6102830     0.8261995
C           4.7635976     1.7788068     1.3025038
H           4.8990412     2.6654699     1.9187710
C           3.4746096     1.2716232     1.1441180
C           2.2904084     1.9354698     1.8028256
H           2.5908202     2.8554926     2.3128684
H           1.8156839     1.2906042     2.5589194
H           1.5136479     2.1920740     1.0700250
C           3.2886594     0.1186657     0.3373280
C           4.4067370    -0.4849944    -0.2637480
H           4.2805132    -1.3778191    -0.8670537
C           5.6824812     0.0548794    -0.0962157
H           6.5298543    -0.4268422    -0.5778819
20
329_C8H11N_0-4-15-16 (15,) energy =    -366.2272571
C           1.7362868    -1.5859336    -0.5845190
H           2.0703798    -1.5684428    -1.6281270
H           0.6596276    -1.7763157    -0.5867371
H           2.2405804    -2.4274053    -0.0811059
N           1.9781047    -0.3019453     0.0469662
H           1.3303132    -0.0899171     0.7930015
C           5.8745449     1.1617489     0.7115047
H           6.8720655     1.5564035     0.8813173
C           4.7682269     1.7467896     1.3333818
H           4.9118669     2.6024711     1.9901807
C           3.4722225     1.2708306     1.1374822
C           2.2928617     1.9339229     1.8068016
H           2.6117603     2.8053420     2.3861106
H           1.7727179     1.2585778     2.5039409
H           1.5478752     2.2722129     1.0738038
C           3.2763557     0.1544578     0.2833786
C           4.3898088    -0.4348571    -0.3391996
H           4.2551551    -1.2904119    -0.9924205
C           5.6734660     0.0696352    -0.1283512
H           6.5173190    -0.4039117    -0.6240050
20
329_C8H11N_0-4-15-16 (30,) energy =    -366.2264241
C           1.7505022    -1.6197882    -0.5133261
H           2.1101138    -1.7730299    -1.5368656
H           0.6728525    -1.8049672    -0.5170124
H           2.2365121    -2.3678452     0.1333498
N           1.9832322    -0.2474270    -0.0839549
H           1.3046981     0.0544529     0.6023923
C           5.8763358     1.1512944     0.7412262
H           6.8735279     1.5275165     0.9502878
C           4.7633235     1.7171260     1.3668385
H           4.9001537     2.5395804     2.0661310
C           3.4667868     1.2602299     1.1256805
C           2.2834359     1.9065282     1.8061563
H           2.6073273     2.7248206     2.4558556
H           1.7250431     1.1974535     2.4362578
H           1.5704405     2.3227493     1.0809534
C           3.2799553     0.1841405     0.2211491
C           4.3999335    -0.3755259    -0.4170592
H           4.2677220    -1.1894264    -1.1224935
C           5.6831312     0.1027918    -0.1554239
H           6.5323831    -0.3508561    -0.6602901
20
329_C8H11N_0-4-15-16 (45,) energy =    -366.2246625
C           1.7188257    -1.6232728    -0.3955115
H           2.1823055    -1.9793239    -1.3210533
H           0.6392336    -1.7640769    -0.5009990
H           2.0804265    -2.2550161     0.4313166
N           1.9830291    -0.1993174    -0.1976041
H           1.2845546     0.2096725     0.4099520
C           5.8773721     1.1381382     0.7408499
H           6.8754950     1.4959789     0.9763799
C           4.7646273     1.6816517     1.3836162
H           4.9023490     2.4677039     2.1233559
C           3.4654753     1.2431808     1.1133586
C           2.2858662     1.8650991     1.8247005
H           2.6203690     2.6175729     2.5448232
H           1.6971081     1.1224697     2.3828990
H           1.5982993     2.3652096     1.1279852
C           3.2792097     0.2148546     0.1572300
C           4.4001030    -0.3137811    -0.5051583
H           4.2613415    -1.0809873    -1.2606631
C           5.6847458     0.1359262    -0.2090829
H           6.5346760    -0.2953801    -0.7319755
20
329_C8H11N_0-4-15-16 (60,) energy =    -366.2228443
C           1.7078206    -1.6149678    -0.2728161
H           2.3447660    -2.1650296    -0.9711043
H           0.6704895    -1.7668635    -0.5867478
H           1.8434402    -2.0559425     0.7282075
N           2.0100966    -0.1820952    -0.3306415
H           1.2917672     0.3364013     0.1615875
C           5.8835752     1.1298254     0.7421979
H           6.8778040     1.4766920     1.0091556
C           4.7627537     1.6402793     1.3957282
H           4.8906077     2.3876694     2.1761108
C           3.4669514     1.2108416     1.0876408
C           2.2782204     1.7888622     1.8223414
H           2.6065844     2.4599871     2.6215166
H           1.6578236     1.0093307     2.2855966
H           1.6229028     2.3738974     1.1611686
C           3.2978999     0.2371914     0.0759128
C           4.4277247    -0.2530135    -0.5992244
H           4.2912409    -0.9700036    -1.4038550
C           5.7079789     0.1759256    -0.2609719
H           6.5663101    -0.2238265    -0.7949106
20
329_C8H11N_0-4-15-16 (75,) energy =    -366.2211741
C           1.6878851    -1.5706284    -0.1432577
H           2.4019815    -2.2515921    -0.6154032
H           0.6973918    -1.7860693    -0.5569706
H           1.6758581    -1.7922093     0.9370068
N           2.0454870    -0.1824821    -0.4625396
H           1.3204115     0.4329898    -0.1070211
C           5.8841617     1.1207136     0.7502159
H           6.8713276     1.4606553     1.0509326
C           4.7508669     1.5906871     1.4123927
H           4.8626647     2.2973144     2.2321758
C           3.4630246     1.1674201     1.0606187
C           2.2564759     1.6948126     1.8051081
H           2.5651150     2.2949183     2.6663622
H           1.6166324     0.8857534     2.1804382
H           1.6268515     2.3398511     1.1755735
C           3.3214204     0.2512683    -0.0045338
C           4.4625075    -0.1955871    -0.6868538
H           4.3313907    -0.8666731    -1.5314703
C           5.7354531     0.2188797    -0.3047544
H           6.6065088    -0.1446072    -0.8438036
20
329_C8H11N_0-4-15-16 (90,) energy =    -366.2206282
C           1.5262925    -1.3747408    -0.0238714
H           2.2020559    -2.2195729    -0.2380625
H           0.5386734    -1.5984807    -0.4407870
H           1.4218296    -1.2980255     1.0628767
N           1.9946564    -0.0914998    -0.5654462
H           2.0049549    -0.1621034    -1.5811863
C           5.8550679     1.0469421     0.7590277
H           6.8395753     1.3509551     1.1044243
C           4.7183900     1.4104272     1.4818974
H           4.8267401     2.0026574     2.3881353
C           3.4317895     1.0483836     1.0647561
C           2.2171246     1.4668536     1.8565464
H           2.4371415     2.3376394     2.4828448
H           1.8705440     0.6664603     2.5249394
H           1.3844525     1.7053392     1.1883392
C           3.3005509     0.2955535    -0.1210731
C           4.4459241    -0.0836058    -0.8344134
H           4.3307742    -0.6771132    -1.7398908
C           5.7177326     0.2991899    -0.4100804
H           6.5932371     0.0070619    -0.9840805
20
329_C8H11N_0-4-15-16 (105,) energy =    -366.2218106
C           1.4392909    -1.2906831     0.0312711
H           2.0643329    -2.1989205     0.0258077
H           0.4903189    -1.5146242    -0.4666884
H           1.2169701    -1.0421052     1.0722125
N           2.0646338    -0.1440728    -0.6391533
H           2.1354099    -0.3459766    -1.6332446
C           5.8742576     1.0715730     0.7516105
H           6.8472758     1.3974705     1.1088672
C           4.7242199     1.3683216     1.4837582
H           4.8097508     1.9370431     2.4074644
C           3.4503670     0.9790478     1.0541862
C           2.2251914     1.3686246     1.8449519
H           2.4208202     2.2576489     2.4534798
H           1.9033905     0.5738812     2.5321105
H           1.3847592     1.5773169     1.1749729
C           3.3434582     0.2514155    -0.1521869
C           4.5027958    -0.0470023    -0.8835122
H           4.4102949    -0.6110496    -1.8102039
C           5.7595937     0.3673205    -0.4462433
H           6.6425987     0.1308461    -1.0342466
20
329_C8H11N_0-4-15-16 (120,) energy =    -366.2217337
C           1.3376802    -1.2179637     0.0484044
H           1.8985890    -2.1340185     0.2965450
H           0.4723042    -1.4955204    -0.5614816
H           0.9588845    -0.7912318     0.9787910
N           2.1279202    -0.2332032    -0.6958606
H           2.2475865    -0.5472866    -1.6537009
C           5.8859569     1.0863607     0.7343749
H           6.8484311     1.4365585     1.0965782
C           4.7294026     1.3174124     1.4786527
H           4.7981689     1.8659959     2.4159070
C           3.4655020     0.8975543     1.0475917
C           2.2397713     1.2714952     1.8467984
H           2.4483290     2.1350796     2.4866453
H           1.8974563     0.4608607     2.5042651
H           1.4066855     1.5288686     1.1832663
C           3.3751154     0.1868031    -0.1725886
C           4.5414348    -0.0255089    -0.9270277
H           4.4647281    -0.5616479    -1.8717025
C           5.7842587     0.4224970    -0.4873995
H           6.6681390     0.2422058    -1.0937640
20
329_C8H11N_0-4-15-16 (135,) energy =    -366.2206474
C           1.2564000    -1.1258926     0.0841839
H           1.7441897    -1.9074078     0.6885668
H           0.5604095    -1.6131191    -0.6051485
H           0.6636216    -0.4981485     0.7522229
N           2.1979854    -0.3369443    -0.7098858
H           2.3615155    -0.7737652    -1.6090402
C           5.8989226     1.1412003     0.7088187
H           6.8509942     1.5244510     1.0643862
C           4.7426750     1.3115442     1.4685381
H           4.8008396     1.8489646     2.4129177
C           3.4886628     0.8468163     1.0526100
C           2.2704989     1.1884110     1.8808510
H           2.5204895     1.9567723     2.6192899
H           1.8677360     0.3296472     2.4322646
H           1.4628440     1.5808768     1.2515812
C           3.4091551     0.1422974    -0.1740560
C           4.5755553     0.0007443    -0.9495008
H           4.5091115    -0.5230814    -1.9020250
C           5.8039915     0.4930502    -0.5218827
H           6.6833569     0.3593817    -1.1466874
20
329_C8H11N_0-4-15-16 (150,) energy =    -366.2190826
C           1.1812766    -1.0501386     0.0617330
H           1.5187068    -1.7497626     0.8428015
H           0.5424302    -1.6046002    -0.6319266
H           0.5603812    -0.2845517     0.5315078
N           2.2736410    -0.4716291    -0.7091776
H           2.4727344    -1.0027310    -1.5460548
C           5.9012236     1.2009492     0.6767761
H           6.8390549     1.6283449     1.0191709
C           4.7463166     1.3225927     1.4460989
H           4.7921809     1.8653532     2.3880475
C           3.5066753     0.7985576     1.0543347
C           2.2989977     1.1028694     1.9167784
H           2.5842070     1.7800979     2.7278699
H           1.8561503     0.2140208     2.3798891
H           1.5088308     1.6001483     1.3411010
C           3.4425143     0.0807100    -0.1678609
C           4.6087051    -0.0073516    -0.9567096
H           4.5547311    -0.5344292    -1.9083619
C           5.8183413     0.5393147    -0.5477919
H           6.6936921     0.4398660    -1.1845635
20
329_C8H11N_0-4-15-16 (165,) energy =    -366.2174184
C           1.1406245    -0.9640017     0.0276963
H           1.2922821    -1.6328028     0.8897756
H           0.5028406    -1.4879848    -0.6904229
H           0.5896849    -0.0844876     0.3671048
N           2.3666812    -0.6026776    -0.6602616
H           2.5909577    -1.2235564    -1.4241551
C           5.9186406     1.2976031     0.6171676
H           6.8399154     1.7811761     0.9279653
C           4.7716723     1.3912579     1.4009143
H           4.8094934     1.9629449     2.3259604
C           3.5511809     0.7911482     1.0581114
C           2.3672064     1.0404100     1.9730576
H           2.6879149     1.6350534     2.8340682
H           1.9193833     0.1222943     2.3663159
H           1.5714036     1.6063133     1.4732013
C           3.4963456     0.0351922    -0.1428051
C           4.6584150    -0.0326216    -0.9435224
H           4.6107588    -0.5919422    -1.8768065
C           5.8485665     0.5792474    -0.5760312
H           6.7176244     0.4911981    -1.2231389
20
329_C8H11N_0-4-15-16 (180,) energy =    -366.2163747
C           1.0907328    -0.8913752    -0.0256491
H           1.0558457    -1.5021778     0.8891848
H           0.4768093    -1.3936763    -0.7795012
H           0.6186791     0.0716886     0.1853736
N           2.4193181    -0.7312056    -0.5778772
H           2.6431765    -1.3635323    -1.3302765
C           5.8900459     1.3790573     0.5754726
H           6.7915047     1.9164019     0.8542661
C           4.7490009     1.4505018     1.3703159
H           4.7740339     2.0519886     2.2768021
C           3.5554648     0.7775508     1.0717615
C           2.3943470     0.9518521     2.0331932
H           2.7338543     1.4907176     2.9232746
H           1.9760832     0.0002603     2.3753655
H           1.5722148     1.5367849     1.6030143
C           3.5147589    -0.0131586    -0.1077646
C           4.6769215    -0.0754602    -0.9104775
H           4.6443850    -0.6740098    -1.8197312
C           5.8432707     0.5995057    -0.5799992
H           6.7113399     0.5161988    -1.2291788
