26
197_C9H13NO2S_0-6-14-15 (-165,) energy =    -954.0949192
C           0.4560086    -0.1048549    -1.1019110
H           0.8718208     0.0110306    -2.0972195
C          -0.9005230     0.1095576    -0.8835373
H          -1.5402139     0.4165552    -1.7055478
C          -1.4196849    -0.0745377     0.3964709
H          -2.4774593     0.0815331     0.5897856
C           1.2942981    -0.5171917    -0.0557656
C          -0.5737656    -0.4429754     1.4392530
H          -0.9839285    -0.5598211     2.4390553
C           0.8050266    -0.6470789     1.2614746
C           1.6303669    -0.9594408     2.4907678
H           1.0017812    -0.8704016     3.3822121
H           2.4748355    -0.2741460     2.5982887
H           2.0432885    -1.9721807     2.4706872
S           3.0323660    -0.5335703    -0.5755846
N           3.8463104    -1.4317620     0.6088907
C           5.1869191    -0.9416962     0.9555592
H           5.4770258    -1.4167197     1.8984194
H           5.1571548     0.1385874     1.0909260
H           5.9374110    -1.1873227     0.1902627
O           3.0792311    -1.2236719    -1.8731267
C           3.7722094    -2.8838021     0.4068889
O           3.5471421     0.8378560    -0.4665008
H           2.7403224    -3.1819794     0.2047624
H           4.0970174    -3.3716455     1.3315769
H           4.4026065    -3.2266326    -0.4243517
26
197_C9H13NO2S_0-6-14-15 (-150,) energy =    -954.0993988
C           0.4264277    -0.2249383    -1.0701890
H           0.8479123    -0.1428013    -2.0661845
C          -0.9474569    -0.1205157    -0.8713210
H          -1.6048799     0.0651067    -1.7154318
C          -1.4603534    -0.2531060     0.4172611
H          -2.5301442    -0.1791793     0.5929019
C           1.2820138    -0.4854675     0.0074293
C          -0.5961820    -0.4557806     1.4920388
H          -1.0034282    -0.5229644     2.4976703
C           0.7945947    -0.5448484     1.3314003
C           1.6553659    -0.6573817     2.5689474
H           1.0435042    -0.4847267     3.4596618
H           2.4633298     0.0797492     2.5592691
H           2.1237945    -1.6417099     2.6583375
S           3.0340722    -0.3670852    -0.4234279
N           3.7798593    -1.4743341     0.6308867
C           5.1533620    -1.1202521     1.0147803
H           5.4256233    -1.7425418     1.8733271
H           5.1907221    -0.0710284     1.3059195
H           5.8777668    -1.2966453     0.2061788
O           3.1682683    -0.7967085    -1.8237055
C           3.6231116    -2.8737223     0.2141178
O           3.5279024     0.9570626    -0.0211348
H           2.5737788    -3.0784306    -0.0141849
H           3.9219884    -3.5113854     1.0521474
H           4.2302341    -3.1237443    -0.6664259
26
197_C9H13NO2S_0-6-14-15 (-135,) energy =    -954.1031454
C           0.4863969    -0.3531028    -1.0827819
H           0.9310081    -0.3266515    -2.0714962
C          -0.8968789    -0.3302688    -0.9177418
H          -1.5457052    -0.2749532    -1.7867908
C          -1.4307141    -0.3734825     0.3685169
H          -2.5072949    -0.3574359     0.5154831
C           1.3248528    -0.4391611     0.0329945
C          -0.5836456    -0.4180420     1.4760548
H          -1.0110194    -0.4258022     2.4755565
C           0.8119346    -0.4295871     1.3482831
C           1.6670142    -0.4084338     2.5927381
H           1.0431480    -0.2329864     3.4740998
H           2.4207189     0.3826963     2.5373744
H           2.2042740    -1.3521650     2.7270593
S           3.0875916    -0.2894111    -0.3229611
N           3.7587688    -1.5516459     0.6075916
C           5.1388547    -1.3063446     1.0499382
H           5.3710599    -2.0409082     1.8276081
H           5.2129511    -0.3039633     1.4707618
H           5.8701520    -1.4110881     0.2349381
O           3.2713544    -0.5410252    -1.7604222
C           3.5572202    -2.8806973     0.0161614
O           3.5942430     0.9579077     0.2654260
H           2.5061772    -3.0114451    -0.2538979
H           3.8106770    -3.6284421     0.7741555
H           4.1755082    -3.0448349    -0.8768408
26
197_C9H13NO2S_0-6-14-15 (-120,) energy =    -954.1047914
C           0.5545434    -0.4671273    -1.0549446
H           1.0223662    -0.4922782    -2.0328407
C          -0.8310869    -0.5293697    -0.9168288
H          -1.4616716    -0.6067063    -1.7975892
C          -1.3917328    -0.4876876     0.3581108
H          -2.4702288    -0.5354132     0.4825208
C           1.3654213    -0.3711524     0.0790945
C          -0.5717650    -0.3777736     1.4819021
H          -1.0207919    -0.3377715     2.4710741
C           0.8237711    -0.3076078     1.3808118
C           1.6577695    -0.1668999     2.6306835
H           1.0152122    -0.1428780     3.5154451
H           2.2539738     0.7499749     2.6030298
H           2.3610641    -1.0000034     2.7291848
S           3.1354049    -0.2154376    -0.2277704
N           3.7505255    -1.6003185     0.5655455
C           5.1473322    -1.4576652     1.0045134
H           5.3611281    -2.2785001     1.6962686
H           5.2679856    -0.5091811     1.5275562
H           5.8610171    -1.5039607     0.1686960
O           3.3439246    -0.3139368    -1.6807680
C           3.4934192    -2.8492870    -0.1630569
O           3.6634205     0.9432034     0.5027521
H           2.4340863    -2.9167467    -0.4228902
H           3.7339787    -3.6819856     0.5050471
H           4.0918775    -2.9348113    -1.0802778
26
197_C9H13NO2S_0-6-14-15 (-105,) energy =    -954.1042251
C           0.6051774    -0.6088195    -1.0013127
H           1.0943328    -0.6936884    -1.9653848
C          -0.7780543    -0.7326751    -0.8822355
H          -1.3816502    -0.9340546    -1.7622623
C          -1.3703117    -0.5927579     0.3713511
H          -2.4474696    -0.6848672     0.4815229
C           1.3823389    -0.3399201     0.1290452
C          -0.5820393    -0.3373361     1.4938660
H          -1.0543605    -0.2365681     2.4677158
C           0.8110799    -0.2104090     1.4124423
C           1.6104716     0.0423547     2.6677252
H           0.9545311     0.0220128     3.5428950
H           2.1183394     1.0097522     2.6283935
H           2.3877646    -0.7177738     2.7986496
S           3.1607335    -0.2116894    -0.1410951
N           3.7153510    -1.6984619     0.5010685
C           5.1108397    -1.6539058     0.9664055
H           5.2850379    -2.5474986     1.5739812
H           5.2597943    -0.7683056     1.5838322
H           5.8335397    -1.6429486     0.1370525
O           3.3793836    -0.1688172    -1.5956517
C           3.4275528    -2.8536043    -0.3575258
O           3.7234207     0.8434377     0.7081818
H           2.3683395    -2.8653397    -0.6249422
H           3.6419836    -3.7586721     0.2190904
H           4.0291731    -2.8574800    -1.2766982
26
197_C9H13NO2S_0-6-14-15 (-90,) energy =    -954.1016206
C           0.6745083    -0.7371050    -0.9039852
H           1.1887754    -0.8796179    -1.8479835
C          -0.7044437    -0.9126664    -0.8120524
H          -1.2701216    -1.2291485    -1.6833699
C          -1.3419884    -0.6706999     0.4031880
H          -2.4173991    -0.7983712     0.4925921
C           1.4065588    -0.3131678     0.2109907
C          -0.6001739    -0.2672093     1.5126724
H          -1.1069214    -0.0884686     2.4575477
C           0.7902467    -0.0913350     1.4605738
C           1.5251541     0.3055914     2.7194174
H           0.8286032     0.3364575     3.5624462
H           2.0003898     1.2844759     2.6176001
H           2.3232760    -0.4047003     2.9570337
S           3.1932312    -0.1952935    -0.0228159
N           3.7177718    -1.7624207     0.4241904
C           5.0913574    -1.7964303     0.9519135
H           5.2329284    -2.7656932     1.4402025
H           5.2186707    -1.0041923     1.6889351
H           5.8511176    -1.6822411     0.1644401
O           3.4210515     0.0171995    -1.4609833
C           3.4594998    -2.7959990    -0.5841336
O           3.7736640     0.7335429     0.9516346
H           2.4010194    -2.8015285    -0.8529930
H           3.6969613    -3.7641924    -0.1329315
H           4.0616392    -2.6620728    -1.4931321
26
197_C9H13NO2S_0-6-14-15 (-75,) energy =    -954.1007295
C           1.3880296     0.5890278     1.5029654
H           2.2604410     1.0414312     1.9613111
C           0.2127345     1.3156745     1.3490579
H           0.1640146     2.3484457     1.6811144
C          -0.8972543     0.6988802     0.7711095
H          -1.8250531     1.2500621     0.6438119
C           1.4564722    -0.7432747     1.0764835
C          -0.8223846    -0.6294515     0.3604224
H          -1.6964026    -1.1020177    -0.0801708
C           0.3471227    -1.3960745     0.5004618
C           0.3173018    -2.8400440     0.0495763
H          -0.6537767    -3.0636404    -0.4021215
H           0.4801571    -3.5235209     0.8870175
H           1.0982608    -3.0660752    -0.6816507
S           3.0506879    -1.5389117     1.3806756
N           4.0144328    -0.8251590     0.1607672
C           3.7161129    -1.3156152    -1.1883575
H           4.2574006    -0.6856127    -1.9008004
H           2.6474380    -1.2111585    -1.3935377
H           4.0116094    -2.3639974    -1.3366680
O           3.5794365    -1.0315691     2.6516386
C           5.4508881    -0.8219550     0.4778231
O           2.9248121    -2.9895208     1.1726404
H           5.5956243    -0.4518191     1.4926599
H           5.9418350    -0.1407980    -0.2242863
H           5.9091772    -1.8178965     0.3850505
26
197_C9H13NO2S_0-6-14-15 (-60,) energy =    -954.1006885
C           1.4597183     0.5453079     1.2932424
H           2.3833680     1.0036420     1.6289205
C           0.3017453     1.3039756     1.1672702
H           0.3165556     2.3631810     1.4062331
C          -0.8725941     0.6852453     0.7367785
H          -1.7885286     1.2607146     0.6331693
C           1.4483871    -0.8209759     0.9833795
C          -0.8759888    -0.6751716     0.4417912
H          -1.7982800    -1.1469925     0.1131072
C           0.2746795    -1.4745585     0.5557824
C           0.1622226    -2.9462451     0.2246524
H          -0.8648397    -3.1774271    -0.0733570
H           0.4278952    -3.5759327     1.0778208
H           0.8348793    -3.2364576    -0.5869526
S           3.0221548    -1.6646890     1.2625869
N           4.0426920    -0.7835620     0.2103146
C           3.8237517    -1.0938369    -1.2067016
H           4.3718365    -0.3558651    -1.8006044
H           2.7614600    -0.9995647    -1.4475807
H           4.1644475    -2.1027753    -1.4782449
O           3.4816149    -1.3550919     2.6210273
C           5.4594577    -0.8151907     0.6038149
O           2.9159121    -3.0676697     0.8336920
H           5.5441810    -0.5927259     1.6674156
H           5.9781082    -0.0382745     0.0332585
H           5.9359790    -1.7849051     0.3962567
26
197_C9H13NO2S_0-6-14-15 (-45,) energy =    -954.1007552
C           1.5019016     0.5247436     1.0808280
H           2.4615583     0.9880386     1.2797181
C           0.3472240     1.2964245     1.0036107
H           0.4009856     2.3708840     1.1521481
C          -0.8719441     0.6728896     0.7384970
H          -1.7848163     1.2588732     0.6745488
C           1.4421714    -0.8603133     0.8811945
C          -0.9237135    -0.7072346     0.5606597
H          -1.8804304    -1.1838036     0.3635089
C           0.2203663    -1.5192548     0.6308660
C           0.0578027    -3.0112021     0.4440313
H          -1.0031870    -3.2540523     0.3327050
H           0.4538600    -3.5759293     1.2927059
H           0.5951651    -3.3694724    -0.4379646
S           2.9952398    -1.7581454     1.1078660
N           4.0815218    -0.7481210     0.2615488
C           3.9868333    -0.8814708    -1.1966176
H           4.5573188    -0.0630383    -1.6467578
H           2.9450076    -0.7831622    -1.5122337
H           4.3792840    -1.8410444    -1.5600621
O           3.3838091    -1.6873848     2.5211701
C           5.4596988    -0.7941181     0.7710946
O           2.8975513    -3.0692641     0.4482827
H           5.4483438    -0.6997263     1.8566294
H           5.9990662     0.0564137     0.3421698
H           5.9831905    -1.7211030     0.4936283
26
197_C9H13NO2S_0-6-14-15 (-30,) energy =    -954.1011002
C           1.4987032     0.4977310     0.8436899
H           2.4785372     0.9545303     0.9194773
C           0.3463547     1.2801327     0.8343743
H           0.4251939     2.3607398     0.9096463
C          -0.8986258     0.6619037     0.7340994
H          -1.8072475     1.2578005     0.7259337
C           1.4048998    -0.8936382     0.7344840
C          -0.9820475    -0.7271340     0.6531160
H          -1.9577320    -1.2019389     0.5894899
C           0.1559561    -1.5466095     0.6576013
C          -0.0211660    -3.0466054     0.5950090
H          -1.0845756    -3.2974028     0.6503507
H           0.4920440    -3.5507867     1.4201428
H           0.3929345    -3.4618665    -0.3275257
S           2.9294029    -1.8581900     0.8519510
N           4.0832969    -0.7696244     0.2261944
C           4.1191252    -0.7301280    -1.2407112
H           4.7186096     0.1359593    -1.5383218
H           3.1088234    -0.5979842    -1.6351795
H           4.5521932    -1.6401996    -1.6766397
O           3.2604194    -2.0575079     2.2681945
C           5.4090281    -0.8625827     0.8539508
O           2.8131527    -3.0254021    -0.0359212
H           5.2980117    -0.8871017     1.9374501
H           5.9723188     0.0321324     0.5701217
H           5.9697788    -1.7512189     0.5287765
26
197_C9H13NO2S_0-6-14-15 (-15,) energy =    -954.1014817
C           1.4947055     0.4785585     0.6490807
H           2.4795536     0.9289398     0.6133041
C           0.3479749     1.2703759     0.7002027
H           0.4374649     2.3528313     0.6983342
C          -0.9032075     0.6610389     0.7599649
H          -1.8051759     1.2655360     0.8018098
C           1.3828013    -0.9136589     0.6443355
C          -1.0013233    -0.7304386     0.7756936
H          -1.9807342    -1.1981506     0.8356787
C           0.1285318    -1.5563194     0.7213280
C          -0.0404900    -3.0573965     0.7606994
H          -1.0858320    -3.3139700     0.9550248
H           0.5749086    -3.5073054     1.5468943
H           0.2664543    -3.5174708    -0.1830644
S           2.8773996    -1.9296069     0.6227667
N           4.0853049    -0.8145662     0.1843141
C           4.2543571    -0.6513858    -1.2647319
H           4.8630287     0.2429514    -1.4323977
H           3.2834924    -0.5005438    -1.7414118
H           4.7434979    -1.5162475    -1.7318683
O           3.1704914    -2.3646680     1.9947766
C           5.3449475    -0.9281788     0.9314238
O           2.7243601    -2.9333341    -0.4416026
H           5.1321908    -1.0401424     1.9937015
H           5.9085928    -0.0030987     0.7726800
H           5.9584897    -1.7775490     0.5976274
26
197_C9H13NO2S_0-6-14-15 (0,) energy =    -954.1012323
C           1.5510424     0.5193589     0.5403752
H           2.5109533     0.9621623     0.3027617
C           0.4495257     1.3209773     0.8419497
H           0.5543455     2.4020197     0.8519970
C          -0.7762029     0.7236354     1.1243246
H          -1.6427884     1.3356598     1.3592805
C           1.4189164    -0.8696595     0.5246319
C          -0.8959622    -0.6667576     1.1041701
H          -1.8570798    -1.1249479     1.3231652
C           0.1889267    -1.5008669     0.8101234
C           0.0090458    -3.0007751     0.8075817
H          -1.0311857    -3.2607231     1.0227065
H           0.6498284    -3.4749617     1.5580749
H           0.2828301    -3.4301336    -0.1614866
S           2.8510416    -1.9094144     0.1565566
N           4.1033707    -0.7960228    -0.0976114
C           4.7934723    -0.8720694    -1.3904777
H           5.2963118     0.0860918    -1.5587051
H           4.0710418    -1.0412848    -2.1874874
H           5.5434928    -1.6752981    -1.4171249
O           3.1500541    -2.6953320     1.3627671
C           4.9821889    -0.5594349     1.0537917
O           2.6032264    -2.5898914    -1.1220183
H           4.3917144    -0.4536587     1.9647487
H           5.5234373     0.3758539     0.8768097
H           5.7067392    -1.3714309     1.2014966
26
197_C9H13NO2S_0-6-14-15 (15,) energy =    -954.1014822
C           1.4879317     0.5209214     0.4073578
H           2.4091911     0.9666410     0.0515355
C           0.4103175     1.3170360     0.7940741
H           0.4930984     2.3989282     0.7456341
C          -0.7656442     0.7129627     1.2329599
H          -1.6140366     1.3205532     1.5359643
C           1.3876223    -0.8706219     0.4746177
C          -0.8607581    -0.6780881     1.2760276
H          -1.7864799    -1.1416294     1.6073032
C           0.2024417    -1.5084358     0.8994419
C           0.0334557    -3.0091128     0.9516965
H          -1.0054854    -3.2636694     1.1800700
H           0.6812802    -3.4559564     1.7115437
H           0.2988334    -3.4742422    -0.0034606
S           2.7748523    -1.8932339    -0.0696531
N           4.0577499    -0.7774121    -0.1484687
C           4.9336598    -0.9117286    -1.3201314
H           5.5079690     0.0157914    -1.4129423
H           4.3291317    -1.0497320    -2.2155317
H           5.6348048    -1.7538969    -1.2279277
O           3.0467220    -2.8822386     0.9847929
C           4.7719056    -0.5948042     1.1210924
O           2.5146173    -2.3479287    -1.4419135
H           4.0596126    -0.4305081     1.9323948
H           5.3988495     0.2976789     1.0270854
H           5.4025277    -1.4562868     1.3772050
26
197_C9H13NO2S_0-6-14-15 (30,) energy =    -954.1011001
C           1.4774820     0.5256791     0.2080001
H           2.3600439     0.9639469    -0.2430960
C           0.4241411     1.3282288     0.6398210
H           0.4806524     2.4061976     0.5198959
C          -0.6960550     0.7333358     1.2173530
H          -1.5264769     1.3452634     1.5589631
C           1.4164912    -0.8622750     0.3709153
C          -0.7580549    -0.6528230     1.3500996
H          -1.6415721    -1.1094066     1.7886982
C           0.2834306    -1.4922432     0.9289395
C           0.1265427    -2.9879626     1.0823516
H          -0.8807181    -3.2207687     1.4401531
H           0.8557522    -3.3983163     1.7858106
H           0.2815651    -3.5118632     0.1337009
S           2.7707767    -1.8550254    -0.2989193
N           4.0882739    -0.7788541    -0.1793473
C           5.0744756    -0.9036287    -1.2619915
H           5.7137048    -0.0155072    -1.2304066
H           4.5594607    -0.9402012    -2.2213243
H           5.7064487    -1.7978321    -1.1577361
O           2.9878116    -3.0081342     0.5884501
C           4.6797619    -0.7208640     1.1628241
O           2.5361206    -2.0789055    -1.7306531
H           3.8970090    -0.5655173     1.9091078
H           5.3573692     0.1381760     1.1938411
H           5.2355281    -1.6327518     1.4185612
26
197_C9H13NO2S_0-6-14-15 (45,) energy =    -954.1007554
C           1.3971264     0.5345304     0.0068301
H           2.2183005     0.9717766    -0.5496134
C           0.3675344     1.3341391     0.4919385
H           0.3771021     2.4041330     0.3063569
C          -0.6715533     0.7440622     1.2113271
H          -1.4848068     1.3521675     1.5981447
C           1.3966520    -0.8448447     0.2499643
C          -0.6728070    -0.6309805     1.4311855
H          -1.4920778    -1.0814932     1.9853766
C           0.3490166    -1.4704882     0.9575969
C           0.2467696    -2.9545919     1.2300076
H          -0.6971959    -3.1704467     1.7393235
H           1.0719554    -3.3095676     1.8529276
H           0.2844781    -3.5435196     0.3092253
S           2.7371498    -1.7825927    -0.5202166
N           4.0766266    -0.7826820    -0.1703329
C           5.1613625    -0.8708675    -1.1586689
H           5.8354788    -0.0259594    -0.9855247
H           4.7442795    -0.7956943    -2.1625692
H           5.7363270    -1.8050148    -1.0743645
O           2.8755621    -3.0787596     0.1612987
C           4.5350420    -0.8866016     1.2196368
O           2.5666456    -1.7469203    -1.9772723
H           3.6899372    -0.7573383     1.9006511
H           5.2454118    -0.0739459     1.4009431
H           5.0205429    -1.8484397     1.4342434
26
197_C9H13NO2S_0-6-14-15 (60,) energy =    -954.1006886
C           1.2710822     0.5676410    -0.1939082
H           2.0030591     1.0050547    -0.8638088
C           0.2562356     1.3481025     0.3476832
H           0.1909357     2.4035551     0.1007189
C          -0.6733080     0.7558918     1.2035068
H          -1.4747557     1.3487345     1.6360031
C           1.3631097    -0.7939087     0.1231609
C          -0.5794988    -0.6001605     1.5037265
H          -1.3128742    -1.0513490     2.1669454
C           0.4326546    -1.4210483     0.9767473
C           0.4378925    -2.8860140     1.3536018
H          -0.4003613    -3.0947215     2.0250799
H           1.3659374    -3.1779122     1.8524370
H           0.3502236    -3.5313570     0.4755848
S           2.7031017    -1.6688512    -0.7167079
N           4.0567597    -0.7917016    -0.1480436
C           5.2170599    -0.8533624    -1.0497194
H           5.9227241    -0.0787894    -0.7331841
H           4.8936548    -0.6455775    -2.0695938
H           5.7253311    -1.8287300    -1.0212164
O           2.7523882    -3.0637653    -0.2526314
C           4.3895948    -1.0792750     1.2514953
O           2.6150784    -1.3859386    -2.1535564
H           3.4998374    -0.9629741     1.8761448
H           5.1307129    -0.3433625     1.5784333
H           4.7964207    -2.0904239     1.3923261
26
197_C9H13NO2S_0-6-14-15 (75,) energy =    -954.1007294
C           1.1333185     0.5938605    -0.3441971
H           1.7757349     1.0174871    -1.1081960
C           0.1129022     1.3501889     0.2212433
H          -0.0421909     2.3775408    -0.0945823
C          -0.7070002     0.7699021     1.1895163
H          -1.5106842     1.3446389     1.6418294
C           1.3377766    -0.7316194     0.0594284
C          -0.5024243    -0.5520403     1.5759732
H          -1.1533689    -0.9959934     2.3246516
C           0.5172628    -1.3479859     1.0266156
C           0.6382939    -2.7823611     1.4926412
H          -0.0947731    -2.9751667     2.2816029
H           1.6335404    -3.0128527     1.8825638
H           0.4643993    -3.4847008     0.6732238
S           2.6888123    -1.5692843    -0.8008656
N           4.0508039    -0.8557932    -0.0512235
C           5.2623092    -0.8907089    -0.8848322
H           5.9909646    -0.2084050    -0.4359674
H           5.0198684    -0.5421292    -1.8886007
H           5.7076270    -1.8949327    -0.9461952
O           2.6293234    -3.0125253    -0.5235590
C           4.2749917    -1.3143603     1.3232088
O           2.7079310    -1.0976848    -2.1899451
H           3.3636768    -1.1815650     1.9122336
H           5.0536001    -0.6840240     1.7635630
H           4.5893967    -2.3663753     1.3764911
26
197_C9H13NO2S_0-6-14-15 (90,) energy =    -954.1016208
C           1.1258525     0.3237337    -0.7313232
H           1.7640737     0.5335064    -1.5825331
C           0.1121556     1.2079387    -0.3687239
H          -0.0223529     2.1344333    -0.9190624
C          -0.7241842     0.8841324     0.6977722
H          -1.5228239     1.5595515     0.9923580
C           1.2934199    -0.8796712    -0.0366451
C          -0.5362219    -0.3083964     1.3953312
H          -1.1898535    -0.5472717     2.2303404
C           0.4803610    -1.2166860     1.0660363
C           0.6433873    -2.4658561     1.8998511
H          -0.0602455    -2.4481846     2.7373631
H           1.6576739    -2.5478453     2.3029111
H           0.4690131    -3.3697497     1.3107741
S           2.6884216    -1.8999003    -0.5600493
N           3.9499945    -1.3256295     0.4446107
C           4.4992716    -0.0266944     0.0411904
H           5.1830970     0.3019404     0.8296968
H           3.6980569     0.7112668    -0.0373785
H           5.0415711    -0.0730229    -0.9130393
O           2.4626833    -3.2999396    -0.1883635
C           4.9862455    -2.3328328     0.7240980
O           2.9680169    -1.5516840    -1.9621974
H           4.5141939    -3.2716049     1.0120723
H           5.5878987    -1.9634032     1.5604415
H           5.6478282    -2.5107404    -0.1367408
26
197_C9H13NO2S_0-6-14-15 (105,) energy =    -954.1042253
C           1.0110447     0.3182909    -0.8636384
H           1.5993316     0.5113759    -1.7538920
C          -0.0401823     1.1577578    -0.4988510
H          -0.2700864     2.0312246    -1.1017825
C          -0.7871804     0.8608631     0.6394396
H          -1.6110249     1.5039779     0.9370535
C           1.3018915    -0.8117302    -0.0939513
C          -0.4783365    -0.2629296     1.4064798
H          -1.0636601    -0.4810537     2.2961126
C           0.5732367    -1.1266483     1.0722800
C           0.8724663    -2.3127564     1.9567174
H           0.2261695    -2.2976342     2.8391347
H           1.9154910    -2.3014014     2.2900505
H           0.7216342    -3.2552457     1.4235268
S           2.6894122    -1.8188222    -0.6530912
N           3.8984579    -1.4023842     0.4849346
C           4.4720471    -0.0682547     0.2717483
H           5.0816103     0.1758766     1.1472156
H           3.6736887     0.6738107     0.1972382
H           5.0956076    -0.0155008    -0.6311507
O           2.3946614    -3.2404844    -0.4452313
C           4.9158785    -2.4491614     0.6719095
O           3.0624020    -1.3417145    -1.9942059
H           4.4250114    -3.4123494     0.8097842
H           5.4811026    -2.2025506     1.5761809
H           5.6145116    -2.5166912    -0.1751996
26
197_C9H13NO2S_0-6-14-15 (120,) energy =    -954.1047916
C           0.9167230     0.3063760    -0.9772150
H           1.4615057     0.4836685    -1.8978407
C          -0.1852899     1.0859628    -0.6297533
H          -0.5101808     1.8887283    -1.2849864
C          -0.8609892     0.8202896     0.5595311
H          -1.7219266     1.4187499     0.8451656
C           1.3366603    -0.7242422    -0.1320484
C          -0.4395592    -0.2206587     1.3878064
H          -0.9803672    -0.4229312     2.3088010
C           0.6600947    -1.0279756     1.0686382
C           1.0553679    -2.1534473     1.9931437
H           0.3860400    -2.1880424     2.8574786
H           2.0828805    -2.0267911     2.3489322
H           1.0149915    -3.1173501     1.4772112
S           2.7210773    -1.7155883    -0.7252132
N           3.8836436    -1.4621228     0.5035337
C           4.5053985    -0.1326969     0.4496025
H           5.0700571     0.0104776     1.3760449
H           3.7319527     0.6377498     0.4001095
H           5.1805903    -0.0160334    -0.4090556
O           2.3689400    -3.1395778    -0.6684710
C           4.8577644    -2.5572135     0.6299045
O           3.1732907    -1.1296633    -1.9966057
H           4.3304319    -3.5106781     0.6537585
H           5.3898515    -2.4177489     1.5761860
H           5.5908575    -2.5688833    -0.1901685
26
197_C9H13NO2S_0-6-14-15 (135,) energy =    -954.1031452
C           0.7887885     0.2687509    -1.0252628
H           1.2815682     0.4285177    -1.9779310
C          -0.3604272     0.9787780    -0.6838511
H          -0.7810215     1.6973608    -1.3809945
C          -0.9604792     0.7506364     0.5527298
H          -1.8567660     1.2960216     0.8357785
C           1.3416326    -0.6465049    -0.1241912
C          -0.4234186    -0.1947841     1.4267919
H          -0.9146947    -0.3824771     2.3781671
C           0.7234578    -0.9359826     1.1116813
C           1.2088596    -1.9906188     2.0773373
H           0.4721354    -2.1394279     2.8722601
H           2.1628548    -1.7090651     2.5333011
H           1.3682739    -2.9456365     1.5679106
S           2.7240018    -1.6114709    -0.7677383
N           3.8493423    -1.5395110     0.5122819
C           4.5401467    -0.2469651     0.6067506
H           5.0617166    -0.2135979     1.5683983
H           3.8103734     0.5665250     0.5861419
H           5.2645902    -0.0938062    -0.2046863
O           2.3220708    -3.0208855    -0.8714056
C           4.7523086    -2.6969658     0.5856064
O           3.2355109    -0.9134299    -1.9570761
H           4.1726918    -3.6158970     0.5017537
H           5.2440314    -2.6700395     1.5632362
H           5.5235447    -2.6832350    -0.1986358
26
197_C9H13NO2S_0-6-14-15 (150,) energy =    -954.0993988
C           0.6759411     0.2193695    -1.0789571
H           1.1246022     0.3570875    -2.0567858
C          -0.5212160     0.8507673    -0.7530849
H          -1.0243561     1.4713882    -1.4885128
C          -1.0604082     0.6720794     0.5190961
H          -1.9916153     1.1596155     0.7946708
C           1.3449203    -0.5661084    -0.1320523
C          -0.4170602    -0.1570277     1.4365284
H          -0.8643722    -0.3173671     2.4142052
C           0.7789022    -0.8255893     1.1353478
C           1.3424143    -1.7864190     2.1572953
H           0.6114781    -1.9441876     2.9562937
H           2.2686589    -1.4161352     2.6059354
H           1.5727145    -2.7559051     1.7063693
S           2.7554289    -1.4672682    -0.8158972
N           3.8238911    -1.5949927     0.5016228
C           4.5638165    -0.3564240     0.7754939
H           5.0377054    -0.4559417     1.7572083
H           3.8720940     0.4892591     0.8137454
H           5.3338112    -0.1475459     0.0205488
O           2.3324996    -2.8417381    -1.1176577
C           4.6665935    -2.7986965     0.4887799
O           3.3286903    -0.6336642    -1.8835209
H           4.0506353    -3.6717982     0.2759168
H           5.1069140    -2.9024941     1.4856858
H           5.4776754    -2.7397788    -0.2517554
26
197_C9H13NO2S_0-6-14-15 (165,) energy =    -954.0949192
C           0.5407840     0.1354298    -1.0451005
H           0.9577522     0.2547780    -2.0394999
C          -0.7089901     0.6662564    -0.7448822
H          -1.2786481     1.1806299    -1.5130432
C          -1.2125255     0.5283158     0.5470846
H          -2.1841699     0.9399979     0.8059734
C           1.2977270    -0.5175970    -0.0612904
C          -0.4741768    -0.1579953     1.5075895
H          -0.8865620    -0.2819683     2.5056231
C           0.7816108    -0.7265028     1.2353834
C           1.4435861    -1.5221087     2.3393363
H           0.7529093    -1.6165860     3.1829727
H           2.3583750    -1.0472978     2.7058395
H           1.7179490    -2.5266894     2.0079580
S           2.7873565    -1.2704700    -0.7723598
N           3.7818971    -1.6337696     0.5511879
C           4.5814658    -0.4961236     1.0212683
H           4.9868464    -0.7505492     2.0058979
H           3.9485127     0.3884788     1.1280633
H           5.4084710    -0.2521190     0.3412187
O           2.4037630    -2.5631236    -1.3551157
C           4.5331410    -2.8913713     0.4437057
O           3.4114419    -0.2483182    -1.6253739
H           3.8728342    -3.6822592     0.0906174
H           4.8969653    -3.1438422     1.4450680
H           5.3941833    -2.8122368    -0.2357229
26
197_C9H13NO2S_0-6-14-15 (180,) energy =    -954.0923915
C           0.4733150     0.0379261    -1.1172750
H           0.8694954     0.1688313    -2.1190311
C          -0.8391128     0.4032301    -0.8407068
H          -1.4636582     0.8184577    -1.6260607
C          -1.3351608     0.2288485     0.4502533
H          -2.3577974     0.5070065     0.6897653
C           1.2957169    -0.5001964    -0.1162403
C          -0.5139323    -0.3050406     1.4387014
H          -0.9089604    -0.4369219     2.4427456
C           0.8177832    -0.6853935     1.1962399
C           1.6027549    -1.2525546     2.3600685
H           0.9700436    -1.2648863     3.2529125
H           2.4931213    -0.6603293     2.5881373
H           1.9376051    -2.2770788     2.1740999
S           2.9476001    -0.8795670    -0.7723477
N           3.8647533    -1.5169212     0.4855619
C           4.9421645    -0.6836427     1.0241309
H           5.1308578    -0.9929499     2.0584335
H           4.6485897     0.3653727     1.0138025
H           5.8718084    -0.7897486     0.4478697
O           2.7600611    -1.9364448    -1.7743958
C           4.1499852    -2.9530235     0.4499734
O           3.5445028     0.4060611    -1.1555513
H           3.3014386    -3.4965068     0.0357325
H           4.3268338    -3.2937009     1.4764406
H           5.0371612    -3.1814783    -0.1568294
