26
197_C9H13NO2S_6-14-15-16 (-165,) energy =    -954.1004269
C           1.0758517     0.5578297    -0.3213670
H           1.7485407     1.0395685    -1.0223240
C          -0.0109720     1.2474175     0.2049367
H          -0.1881085     2.2809023    -0.0774414
C          -0.8679937     0.5923139     1.0895228
H          -1.7244516     1.1130963     1.5091589
C           1.3094400    -0.7749274     0.0407765
C          -0.6322191    -0.7359669     1.4351865
H          -1.3114416    -1.2373414     2.1197138
C           0.4558590    -1.4649539     0.9261762
C           0.6164444    -2.9081951     1.3496065
H          -0.1592106    -3.1659925     2.0769230
H           1.5929131    -3.1016130     1.8023769
H           0.5378146    -3.5876909     0.4970802
S           2.7441293    -1.5198130    -0.7658604
N           4.0300077    -0.7404641     0.0632527
C           5.3137868    -0.9061652    -0.6407387
H           6.0328565    -0.2205680    -0.1819995
H           5.1873406    -0.6357692    -1.6895404
H           5.7042828    -1.9321343    -0.5715264
O           2.7564205    -2.9692830    -0.5125953
C           4.1200198    -1.1174891     1.4794078
O           2.8075022    -1.0277885    -2.1462492
H           3.1613403    -0.9421110     1.9738246
H           4.8650423    -0.4684248     1.9497546
H           4.4163884    -2.1667294     1.6230016
26
197_C9H13NO2S_6-14-15-16 (-150,) energy =    -954.1006566
C           1.1166538     0.5099227    -0.3410781
H           1.8138013     0.9579711    -1.0404941
C           0.0374080     1.2390430     0.1445121
H          -0.1093212     2.2683012    -0.1691398
C          -0.8513496     0.6296691     1.0310953
H          -1.7016347     1.1827658     1.4208696
C           1.3109051    -0.8182594     0.0591521
C          -0.6543644    -0.6934512     1.4163036
H          -1.3574321    -1.1599690     2.1014321
C           0.4243654    -1.4624473     0.9461081
C           0.5347686    -2.8996341     1.4062615
H          -0.2616085    -3.1171548     2.1242703
H           1.4962326    -3.1130468     1.8812277
H           0.4504770    -3.5963661     0.5680736
S           2.7481750    -1.6179777    -0.6915294
N           4.0248469    -0.8347146     0.1273701
C           5.2629253    -0.7105424    -0.6541015
H           5.8964913     0.0284299    -0.1532287
H           5.0240174    -0.3551695    -1.6560714
H           5.8167240    -1.6584205    -0.7289482
O           2.7294004    -3.0554100    -0.3830233
C           4.2282920    -1.3054792     1.4998868
O           2.8370384    -1.1737129    -2.0870490
H           3.2817085    -1.2763928     2.0463841
H           4.9211238    -0.6162986     1.9924513
H           4.6377377    -2.3243678     1.5455537
26
197_C9H13NO2S_6-14-15-16 (-135,) energy =    -954.0996954
C           1.1317524     0.4803973    -0.3964671
H           1.8343140     0.8961193    -1.1103312
C           0.0606483     1.2394629     0.0600901
H          -0.0714610     2.2593509    -0.2888892
C          -0.8392675     0.6722107     0.9631490
H          -1.6830870     1.2497716     1.3307908
C           1.3073278    -0.8365181     0.0469606
C          -0.6616109    -0.6402511     1.3913851
H          -1.3737628    -1.0755579     2.0876405
C           0.4081448    -1.4386643     0.9504307
C           0.4926107    -2.8632155     1.4543075
H          -0.3156388    -3.0482977     2.1681536
H           1.4439265    -3.0769581     1.9493633
H           0.4093262    -3.5831603     0.6359564
S           2.7468588    -1.6765529    -0.6581448
N           4.0296633    -0.9369625     0.1731363
C           5.1876711    -0.5266436    -0.6261091
H           5.7239688     0.2464534    -0.0656310
H           4.8475499    -0.1113418    -1.5737957
H           5.8789549    -1.3580038    -0.8303917
O           2.6858758    -3.1065067    -0.3285991
C           4.3378833    -1.5116573     1.4822718
O           2.8654622    -1.2443970    -2.0555599
H           3.4212027    -1.6241587     2.0669171
H           4.9896446    -0.8109135     2.0134606
H           4.8367518    -2.4880974     1.4134568
26
197_C9H13NO2S_6-14-15-16 (-120,) energy =    -954.0985089
C           0.8577590     0.4315032    -0.7219262
H           1.4421015     0.7646855    -1.5715323
C          -0.2739345     1.1354261    -0.3171049
H          -0.5702219     2.0355285    -0.8477116
C          -1.0192087     0.6666191     0.7621677
H          -1.9083037     1.1991081     1.0887973
C           1.2470068    -0.7308184    -0.0473892
C          -0.6291397    -0.4978426     1.4215852
H          -1.2218869    -0.8628684     2.2565858
C           0.5065641    -1.2290776     1.0450192
C           0.8558944    -2.4707338     1.8322337
H           0.0042507    -2.7777639     2.4463419
H           1.6936030    -2.2796965     2.5144621
H           1.1376445    -3.2995540     1.1801436
S           2.7201446    -1.5422597    -0.7288097
N           3.9696649    -1.1520833     0.3820027
C           5.0939380    -0.4054467    -0.2048883
H           5.6904981    -0.0103707     0.6236409
H           4.7251627     0.4279367    -0.8014181
H           5.7355685    -1.0358387    -0.8364970
O           2.5034779    -2.9953077    -0.7045120
C           4.4406324    -2.2708566     1.2141357
O           3.0358625    -0.8618364    -1.9904102
H           3.6038146    -2.8583613     1.5848318
H           4.9778225    -1.8451447     2.0679524
H           5.1171282    -2.9421601     0.6662903
26
197_C9H13NO2S_6-14-15-16 (-105,) energy =    -954.1013530
C           0.7703114     0.3704724    -0.8705426
H           1.3076082     0.6410836    -1.7723689
C          -0.3737081     1.0654251    -0.4809908
H          -0.7352392     1.8939377    -1.0828883
C          -1.0427280     0.6833769     0.6792983
H          -1.9366072     1.2134483     0.9968411
C           1.2381505    -0.6970618    -0.0997051
C          -0.5676166    -0.3862633     1.4389487
H          -1.0982211    -0.6781556     2.3417289
C           0.5777976    -1.1065127     1.0770439
C           1.0445612    -2.2452865     1.9495127
H           0.3270157    -2.4271774     2.7546305
H           2.0137815    -2.0134609     2.4052195
H           1.1631480    -3.1666888     1.3722467
S           2.6925521    -1.5489410    -0.7510873
N           3.8747132    -1.3209089     0.4755222
C           4.8980809    -0.3209222     0.1287500
H           5.4672252    -0.1047242     1.0382002
H           4.4263585     0.6021779    -0.2109187
H           5.5848686    -0.6732028    -0.6520115
O           2.3940237    -2.9862285    -0.8119149
C           4.4841520    -2.5652379     0.9784381
O           3.1183462    -0.8301911    -1.9588856
H           3.7181310    -3.3128829     1.1737596
H           4.9953565    -2.3224668     1.9156321
H           5.2156200    -2.9896806     0.2758698
26
197_C9H13NO2S_6-14-15-16 (-90,) energy =    -954.1037284
C           0.8233285     0.3251262    -0.8878174
H           1.3644299     0.5458476    -1.8011691
C          -0.2853228     1.0804633    -0.5082058
H          -0.6157844     1.9082241    -1.1286705
C          -0.9599543     0.7584141     0.6672915
H          -1.8265310     1.3360643     0.9775533
C           1.2492163    -0.7404116    -0.0906118
C          -0.5271395    -0.3111223     1.4523936
H          -1.0628951    -0.5546776     2.3663789
C           0.5813178    -1.0919929     1.1012347
C           1.0010522    -2.2358795     1.9910035
H           0.3311759    -2.3138709     2.8520422
H           2.0220703    -2.0882345     2.3589412
H           0.9880430    -3.1851793     1.4476284
S           2.6568793    -1.6792044    -0.7147635
N           3.8315275    -1.4331309     0.5086998
C           4.6738856    -0.2512241     0.2738826
H           5.2465098    -0.0641886     1.1874858
H           4.0473714     0.6224807     0.0796385
H           5.3648096    -0.3851680    -0.5685166
O           2.3197247    -3.1083144    -0.6945872
C           4.6198962    -2.6310785     0.8429805
O           3.0949827    -1.0460544    -1.9664869
H           3.9568353    -3.4838176     0.9812732
H           5.1437892    -2.4257877     1.7819555
H           5.3630961    -2.8794710     0.0711610
26
197_C9H13NO2S_6-14-15-16 (-75,) energy =    -954.1048572
C           0.8895095     0.2736013    -0.9105138
H           1.4392056     0.4450085    -1.8293334
C          -0.1850317     1.0854480    -0.5509916
H          -0.4807944     1.9100300    -1.1928177
C          -0.8713000     0.8236601     0.6331411
H          -1.7115873     1.4468966     0.9270959
C           1.2699680    -0.7867121    -0.0836286
C          -0.4856322    -0.2426310     1.4465039
H          -1.0314440    -0.4394768     2.3657350
C           0.5872176    -1.0806989     1.1157927
C           0.9530368    -2.2239653     2.0303964
H           0.3017352    -2.2307657     2.9090570
H           1.9922230    -2.1402954     2.3649718
H           0.8619552    -3.1847695     1.5156048
S           2.6337945    -1.8049750    -0.6784674
N           3.8217750    -1.5279721     0.5204406
C           4.4622918    -0.2107184     0.4121738
H           5.0421408    -0.0448688     1.3253337
H           3.6999489     0.5694701     0.3470613
H           5.1265957    -0.1342586    -0.4593072
O           2.2717458    -3.2240399    -0.5797559
C           4.7830766    -2.6320808     0.6684807
O           3.0658850    -1.2537100    -1.9721166
H           4.2437890    -3.5772236     0.7273023
H           5.3286792    -2.4711353     1.6035762
H           5.5055892    -2.6780549    -0.1597143
26
197_C9H13NO2S_6-14-15-16 (-60,) energy =    -954.1037963
C           0.9075397     0.2126818    -0.9332197
H           1.4614274     0.3294742    -1.8579816
C          -0.1349460     1.0759082    -0.6010676
H          -0.4029643     1.8864390    -1.2722721
C          -0.8252331     0.8843071     0.5945963
H          -1.6399791     1.5497879     0.8670488
C           1.2509907    -0.8289404    -0.0673439
C          -0.4772332    -0.1646343     1.4463510
H          -1.0263842    -0.3071546     2.3735692
C           0.5611899    -1.0551257     1.1424577
C           0.8804625    -2.1858728     2.0904319
H           0.2741940    -2.1032758     2.9970709
H           1.9381168    -2.1819596     2.3713817
H           0.6842338    -3.1550552     1.6220080
S           2.5649061    -1.9275733    -0.6311176
N           3.7916562    -1.6446709     0.5266345
C           4.2631655    -0.2572584     0.5933661
H           4.8979699    -0.1652499     1.4801685
H           3.4161380     0.4216866     0.7089353
H           4.8428180     0.0384056    -0.2934471
O           2.1618529    -3.3286537    -0.4652327
C           4.8734140    -2.6376466     0.4593448
O           2.9884835    -1.4540556    -1.9593934
H           4.4410873    -3.6385126     0.4268692
H           5.4731996    -2.5402980     1.3696127
H           5.5253222    -2.4929120    -0.4147211
26
197_C9H13NO2S_6-14-15-16 (-45,) energy =    -954.1009674
C           0.9701847     0.1568559    -0.9779764
H           1.5294352     0.2285863    -1.9039716
C          -0.0570244     1.0507898    -0.6814462
H          -0.3080024     1.8408545    -1.3829363
C          -0.7541561     0.9172296     0.5182821
H          -1.5562606     1.6083222     0.7630480
C           1.2896694    -0.8578211    -0.0724319
C          -0.4299523    -0.1062774     1.4096621
H          -0.9850958    -0.2037016     2.3391364
C           0.5908234    -1.0280031     1.1411145
C           0.8840562    -2.1336181     2.1274599
H           0.3072896    -1.9856040     3.0450016
H           1.9474189    -2.1757126     2.3821927
H           0.6279455    -3.1096703     1.7039647
S           2.5792748    -2.0053101    -0.5927551
N           3.8446309    -1.6938966     0.5201325
C           4.1485162    -0.2851395     0.7877369
H           4.8733973    -0.2593207     1.6074864
H           3.2508204     0.2431892     1.1104307
H           4.5824390     0.2358544    -0.0799899
O           2.1569004    -3.3910407    -0.3608649
C           5.0253145    -2.5201999     0.2336215
O           2.9902314    -1.6067193    -1.9502869
H           4.7097058    -3.5529725     0.0733566
H           5.6790312    -2.4887058     1.1106931
H           5.5830496    -2.1687946    -0.6462979
26
197_C9H13NO2S_6-14-15-16 (-30,) energy =    -954.0974110
C           0.9757071     0.1026513    -0.9799505
H           1.5407439     0.1234475    -1.9049036
C          -0.0215189     1.0409870    -0.7194787
H          -0.2399305     1.8167214    -1.4473576
C          -0.7320111     0.9694978     0.4775812
H          -1.5112403     1.6953618     0.6937992
C           1.2519078    -0.8935739    -0.0408149
C          -0.4506129    -0.0361550     1.4034004
H          -1.0153883    -0.0842784     2.3309523
C           0.5391893    -1.0004961     1.1717465
C           0.7878804    -2.0830966     2.1962209
H           0.2470375    -1.8600387     3.1205544
H           1.8514881    -2.1903929     2.4301127
H           0.4563736    -3.0561410     1.8208449
S           2.5008639    -2.1040843    -0.5178623
N           3.8296573    -1.7583571     0.5125942
C           4.0207309    -0.3789173     0.9647819
H           4.8204825    -0.3949326     1.7122827
H           3.1174953    -0.0012401     1.4434724
H           4.3155916     0.3116140     0.1582410
O           2.0477621    -3.4594076    -0.1876721
C           5.0504131    -2.4200545     0.0366034
O           2.8761139    -1.8097386    -1.9121497
H           4.8243021    -3.4587086    -0.2152225
H           5.7756026    -2.4166244     0.8562009
H           5.4881053    -1.9234153    -0.8407069
26
197_C9H13NO2S_6-14-15-16 (-15,) energy =    -954.0941305
C           1.0380715     0.0378961    -0.9926841
H           1.6176805     0.0183935    -1.9086472
C           0.0696234     1.0155131    -0.7712718
H          -0.1072303     1.7827066    -1.5191940
C          -0.6665023     0.9927068     0.4120020
H          -1.4241920     1.7489707     0.5984451
C           1.2616164    -0.9491124    -0.0294950
C          -0.4385413    -0.0037551     1.3618943
H          -1.0234246    -0.0143418     2.2781092
C           0.5220548    -1.0060668     1.1704401
C           0.7067909    -2.0728472     2.2255245
H           0.1518985    -1.8069049     3.1300315
H           1.7582073    -2.2161428     2.4935039
H           0.3499814    -3.0423828     1.8656030
S           2.4880379    -2.2018960    -0.4615966
N           3.8803091    -1.7964486     0.4639498
C           3.9727114    -0.4756002     1.0866778
H           4.8342384    -0.4999193     1.7620024
H           3.0856145    -0.2632896     1.6825819
H           4.1223519     0.3450886     0.3664702
O           2.0282415    -3.5204389    -0.0141888
C           5.1113172    -2.2509587    -0.1921383
O           2.8106446    -2.0199821    -1.8872927
H           4.9890582    -3.2814795    -0.5326410
H           5.9115259    -2.2312712     0.5542704
H           5.3944203    -1.6252344    -1.0499475
26
197_C9H13NO2S_6-14-15-16 (0,) energy =    -954.0923202
C           1.1204965    -0.0302963    -0.9693299
H           1.7220458    -0.0960242    -1.8690697
C           0.1924064     0.9949742    -0.8004347
H           0.0742804     1.7524872    -1.5695544
C          -0.5819492     1.0297698     0.3578752
H          -1.3109568     1.8219905     0.5052008
C           1.2705428    -1.0082419     0.0188494
C          -0.4292752     0.0434774     1.3322298
H          -1.0450392     0.0769521     2.2273786
C           0.4914944    -1.0052642     1.1952583
C           0.5767858    -2.0531318     2.2820904
H          -0.0066079    -1.7362918     3.1517095
H           1.6043005    -2.2430929     2.6063924
H           0.1899273    -3.0134733     1.9293685
S           2.4719865    -2.3071291    -0.3582428
N           3.9322592    -1.8425945     0.4328498
C           3.9590313    -0.5987807     1.2027250
H           4.8829952    -0.6013726     1.7901397
H           3.1231015    -0.5551801     1.9011784
H           3.9471646     0.3090207     0.5786045
O           2.0133613    -3.5620281     0.2442705
C           5.1195413    -2.0513872    -0.4044489
O           2.7253302    -2.2676234    -1.8074212
H           5.0865364    -3.0401321    -0.8639609
H           5.9933080    -2.0065053     0.2534199
H           5.2236348    -1.2991477    -1.1992277
26
197_C9H13NO2S_6-14-15-16 (15,) energy =    -954.0929320
C           1.2399101    -0.1314078    -0.9385588
H           1.8675415    -0.2588674    -1.8139087
C           0.3627448     0.9458220    -0.8438255
H           0.3156240     1.6805482    -1.6421353
C          -0.4550826     1.0597274     0.2792264
H          -1.1478293     1.8918413     0.3710816
C           1.3016062    -1.0842190     0.0853644
C          -0.3931563     0.0997220     1.2879668
H          -1.0443526     0.1942268     2.1531154
C           0.4774981    -0.9994923     1.2279075
C           0.4499051    -2.0060706     2.3562208
H          -0.1869127    -1.6371350     3.1657408
H           1.4431958    -2.2123726     2.7652112
H           0.0619364    -2.9691465     2.0132939
S           2.4815602    -2.4287432    -0.2009922
N           3.9902471    -1.9113730     0.4585470
C           3.9722345    -0.7603075     1.3631162
H           4.9425551    -0.7240662     1.8686579
H           3.2064045    -0.8848656     2.1306633
H           3.8087292     0.1988453     0.8481048
O           2.0379910    -3.5896698     0.5745822
C           5.0827148    -1.8493831    -0.5219076
O           2.6750967    -2.5568272    -1.6519755
H           5.0850369    -2.7460824    -1.1397732
H           6.0198055    -1.8090863     0.0428909
H           5.0242648    -0.9686276    -1.1790661
26
197_C9H13NO2S_6-14-15-16 (30,) energy =    -954.0955908
C           1.2940635    -0.2132649    -0.9585090
H           1.9222007    -0.3804259    -1.8270088
C           0.4481482     0.8908688    -0.9026883
H           0.4279222     1.6038444    -1.7216301
C          -0.3758262     1.0579207     0.2090749
H          -1.0453193     1.9114476     0.2723010
C           1.3221421    -1.1415680     0.0906216
C          -0.3513833     0.1221852     1.2414383
H          -1.0103310     0.2564410     2.0953644
C           0.4884773    -1.0030089     1.2215104
C           0.4039690    -1.9809854     2.3719455
H          -0.2778722    -1.5941641     3.1351539
H           1.3735391    -2.1708495     2.8407591
H           0.0393991    -2.9546991     2.0342434
S           2.5006071    -2.4995567    -0.1418977
N           4.0347123    -1.9303916     0.3876086
C           4.0121574    -0.9265469     1.4530298
H           5.0202947    -0.8638478     1.8752784
H           3.3395175    -1.2393099     2.2546185
H           3.7150768     0.0723196     1.0995856
O           2.1157828    -3.5791838     0.7691461
C           4.9794522    -1.5875356    -0.6833912
O           2.6268690    -2.7527657    -1.5817653
H           4.9458007    -2.3447777    -1.4642165
H           5.9813575    -1.5757922    -0.2413760
H           4.7828584    -0.5996793    -1.1300832
26
197_C9H13NO2S_6-14-15-16 (45,) energy =    -954.0988691
C           1.3906552    -0.3177485    -0.9946656
H           2.0203242    -0.5327708    -1.8511973
C           0.5566488     0.7964644    -0.9972813
H           0.5514913     1.4704663    -1.8488216
C          -0.2754790     1.0235449     0.0977424
H          -0.9367062     1.8856438     0.1153735
C           1.4018161    -1.1979762     0.0964775
C          -0.2717064     0.1346316     1.1704618
H          -0.9391235     0.3120090     2.0098238
C           0.5568333    -0.9989071     1.2102781
C           0.4459341    -1.9223808     2.4029436
H          -0.2854729    -1.5219758     3.1112446
H           1.3963280    -2.0473470     2.9293669
H           0.1336319    -2.9248731     2.1006818
S           2.5858021    -2.5634368    -0.0553906
N           4.1114542    -1.9611314     0.4246722
C           4.1085616    -1.1543674     1.6474708
H           5.1434270    -1.0612216     1.9912860
H           3.5438437    -1.6686169     2.4275868
H           3.6951528    -0.1459273     1.4953598
O           2.2230706    -3.5853151     0.9280797
C           4.9289585    -1.3693952    -0.6424097
O           2.7096522    -2.8956569    -1.4776982
H           4.8756155    -1.9944123    -1.5320983
H           5.9642748    -1.3437442    -0.2870167
H           4.6217132    -0.3416500    -0.8949133
26
197_C9H13NO2S_6-14-15-16 (60,) energy =    -954.1012828
C           1.3314457    -0.3691159    -1.0779681
H           1.9238631    -0.6329247    -1.9469101
C           0.4939698     0.7424505    -1.1075555
H           0.4499224     1.3663694    -1.9953959
C          -0.2904632     1.0315881     0.0074872
H          -0.9529811     1.8928502     0.0038710
C           1.3926791    -1.1860108     0.0596377
C          -0.2381476     0.2050228     1.1280053
H          -0.8702102     0.4280768     1.9837162
C           0.5946054    -0.9236753     1.1953571
C           0.5380583    -1.7799581     2.4411907
H          -0.1925180    -1.3634854     3.1409963
H           1.5021612    -1.8349987     2.9547109
H           0.2563565    -2.8085345     2.2049931
S           2.5795509    -2.5531922    -0.0556825
N           4.0961648    -1.9425103     0.4111737
C           4.1722266    -1.4036594     1.7701431
H           5.2296709    -1.2925080     2.0294983
H           3.7245774    -2.1133300     2.4672790
H           3.6834844    -0.4215786     1.8707472
O           2.2236349    -3.5629896     0.9426518
C           4.7940998    -1.1265122    -0.5874867
O           2.7096155    -2.8983279    -1.4733939
H           4.7246095    -1.6090840    -1.5616691
H           5.8479464    -1.0735310    -0.2957839
H           4.3981833    -0.1001736    -0.6524950
26
197_C9H13NO2S_6-14-15-16 (75,) energy =    -954.1018416
C           1.2354335    -0.4331176    -1.1534283
H           1.8003582    -0.7419475    -2.0255795
C           0.3953451     0.6760577    -1.2105557
H           0.3201196     1.2528730    -2.1276918
C          -0.3495616     1.0242876    -0.0856989
H          -1.0126600     1.8847644    -0.1111623
C           1.3367988    -1.1882152     0.0221064
C          -0.2560334     0.2581532     1.0748800
H          -0.8572026     0.5267628     1.9397501
C           0.5805102    -0.8647077     1.1706587
C           0.5752686    -1.6559734     2.4603704
H          -0.1267947    -1.2042810     3.1674220
H           1.5592975    -1.6840773     2.9372591
H           0.2853470    -2.6950551     2.2880918
S           2.5197196    -2.5629383    -0.0489542
N           4.0264813    -1.9593648     0.4286813
C           4.2305509    -1.7016494     1.8530161
H           5.3091211    -1.6862652     2.0411601
H           3.7903563    -2.5123541     2.4335833
H           3.8094622    -0.7366704     2.1784033
O           2.1452138    -3.5681756     0.9477536
C           4.6667275    -1.0028269    -0.4743679
O           2.6668585    -2.9124915    -1.4637727
H           4.5448611    -1.3402867    -1.5037760
H           5.7361887    -0.9827783    -0.2409305
H           4.2660896     0.0178680    -0.3686756
26
197_C9H13NO2S_6-14-15-16 (90,) energy =    -954.1011199
C           1.1534499    -0.4756364    -1.2449684
H           1.6961019    -0.8115190    -2.1210971
C           0.2759928     0.6036587    -1.3221043
H           0.1470635     1.1303307    -2.2631501
C          -0.4351922     0.9872513    -0.1872303
H          -1.1264142     1.8246487    -0.2289928
C           1.3241092    -1.1646551    -0.0387407
C          -0.2691055     0.2872754     1.0071145
H          -0.8404803     0.5841579     1.8829294
C           0.6074826    -0.8015137     1.1225694
C           0.6978966    -1.5197458     2.4506677
H           0.0308027    -1.0446538     3.1758997
H           1.7101674    -1.4991625     2.8656958
H           0.4229445    -2.5727761     2.3528160
S           2.5318846    -2.5197037    -0.0782811
N           4.0041057    -1.9028650     0.4578276
C           4.3377632    -1.9414243     1.8775296
H           5.4206269    -2.0823581     1.9714574
H           3.8363239    -2.7889354     2.3436445
H           4.0639922    -1.0126974     2.4028397
O           2.1380802    -3.5503400     0.8855149
C           4.6202884    -0.8385105    -0.3281841
O           2.7241051    -2.8421149    -1.4946045
H           4.4325254    -1.0126124    -1.3884149
H           5.7026199    -0.8730525    -0.1638573
H           4.2547907     0.1615356    -0.0477596
26
197_C9H13NO2S_6-14-15-16 (105,) energy =    -954.1002397
C           0.8508890     0.8075776    -0.0778235
H           1.3869534     1.5345624    -0.6767675
C          -0.3030185     1.1642506     0.6179702
H          -0.6680941     2.1861997     0.5736898
C          -0.9809480     0.1981823     1.3577675
H          -1.8838729     0.4581850     1.9036023
C           1.3261077    -0.5064877    -0.0277890
C          -0.5049425    -1.1125398     1.3934967
H          -1.0463738    -1.8625389     1.9646420
C           0.6530581    -1.5046429     0.7087498
C           1.0989979    -2.9461794     0.7873509
H           0.3731267    -3.5343590     1.3561734
H           2.0680512    -3.0432019     1.2893553
H           1.2093734    -3.3841861    -0.2076668
S           2.8387509    -0.8387211    -0.9735335
N           4.0776921    -1.0249216     0.1335097
C           4.6377758    -2.3273501     0.4647588
H           5.7291289    -2.2910693     0.3530262
H           4.2436344    -3.0768668    -0.2204411
H           4.4056873    -2.6179628     1.5000158
O           2.7010948    -2.1256109    -1.6633547
C           4.5029892     0.1179909     0.9309502
O           3.1147755     0.3903530    -1.7240528
H           4.1585000     1.0425276     0.4659272
H           5.5987912     0.1455859     0.9638754
H           4.1217525     0.0633137     1.9610798
26
197_C9H13NO2S_6-14-15-16 (120,) energy =    -954.1017969
C           0.7834351     0.8418847    -0.1080681
H           1.3305387     1.5906558    -0.6693744
C          -0.4462324     1.1402011     0.4773482
H          -0.8651209     2.1373700     0.3788447
C          -1.1267684     0.1486887     1.1798259
H          -2.0871951     0.3634653     1.6405675
C           1.3265782    -0.4400965     0.0142177
C          -0.5773774    -1.1291067     1.2911538
H          -1.1181125    -1.8975662     1.8378979
C           0.6555586    -1.4628292     0.7165200
C           1.1963872    -2.8615515     0.8843088
H           0.4564994    -3.4989460     1.3768162
H           2.1025047    -2.8601691     1.5009269
H           1.4564059    -3.3067689    -0.0798989
S           2.9035269    -0.7082649    -0.8304112
N           3.9932293    -1.0630741     0.4094619
C           4.6850960    -2.3515984     0.4035009
H           5.6582839    -2.2911902    -0.1058109
H           4.0775907    -3.0970617    -0.1061320
H           4.8516229    -2.6653587     1.4405377
O           2.7834372    -1.9173528    -1.6550668
C           4.7279940     0.0623040     0.9852426
O           3.2873132     0.5737138    -1.4334033
H           4.0768691     0.9333822     1.0751991
H           5.6035623     0.3411910     0.3831722
H           5.0608389    -0.2245136     1.9884874
26
197_C9H13NO2S_6-14-15-16 (135,) energy =    -954.1037501
C           0.8150747     0.8364539    -0.1350338
H           1.3794917     1.5596831    -0.7128778
C          -0.4061727     1.1753750     0.4459992
H          -0.8032754     2.1792166     0.3275435
C          -1.1066207     0.2143852     1.1714664
H          -2.0605193     0.4612884     1.6297329
C           1.3274198    -0.4547659     0.0161620
C          -0.5871068    -1.0733828     1.3106090
H          -1.1441751    -1.8160983     1.8761226
C           0.6357934    -1.4486867     0.7402303
C           1.1450431    -2.8567654     0.9264742
H           0.4256805    -3.4492237     1.4989379
H           2.0989479    -2.8588564     1.4650981
H           1.3172483    -3.3462428    -0.0364042
S           2.8874748    -0.7901934    -0.8271781
N           3.9370366    -1.1583581     0.4568156
C           4.8071830    -2.3259572     0.2872460
H           5.7054698    -2.1009555    -0.3066787
H           4.2547835    -3.1265715    -0.2024978
H           5.1195464    -2.6588676     1.2828523
O           2.7459180    -2.0180140    -1.6199220
C           4.5589769     0.0017835     1.0984945
O           3.3119064     0.4594825    -1.4727532
H           3.8069736     0.7709393     1.2893913
H           5.3645965     0.4389475     0.4933864
H           4.9664695    -0.3230406     2.0611933
26
197_C9H13NO2S_6-14-15-16 (150,) energy =    -954.1047960
C           0.8393555     0.7936923    -0.1385753
H           1.4260599     1.4840883    -0.7343422
C          -0.3595712     1.1902461     0.4518156
H          -0.7173571     2.2075396     0.3235102
C          -1.0885892     0.2683505     1.2001632
H          -2.0255023     0.5615711     1.6661196
C           1.2996819    -0.5152664     0.0272142
C          -0.6211836    -1.0376969     1.3527407
H          -1.2004432    -1.7491889     1.9357679
C           0.5776843    -1.4715907     0.7722852
C           1.0285059    -2.8987100     0.9651771
H           0.3223148    -3.4372753     1.6035235
H           2.0192688    -2.9366132     1.4298108
H           1.1067113    -3.4200292     0.0067060
S           2.8303497    -0.9312591    -0.8302293
N           3.8773061    -1.2799037     0.4731052
C           4.9204230    -2.2696578     0.1690938
H           5.7331000    -1.8542224    -0.4450950
H           4.4757812    -3.1171121    -0.3518745
H           5.3389536    -2.6119878     1.1209639
O           2.6550259    -2.1886916    -1.5671808
C           4.3735095    -0.0857545     1.1662583
O           3.2785989     0.2744302    -1.5432282
H           3.5387570     0.5751097     1.4125931
H           5.1076095     0.4745950     0.5714385
H           4.8384261    -0.4100363     2.1024876
26
197_C9H13NO2S_6-14-15-16 (165,) energy =    -954.1044499
C           0.8228662     0.7535099    -0.1280334
H           1.4249610     1.4110636    -0.7452397
C          -0.3520774     1.2019661     0.4726681
H          -0.6768063     2.2283743     0.3301730
C          -1.0999995     0.3201584     1.2508261
H          -2.0183857     0.6545417     1.7259029
C           1.2394035    -0.5675038     0.0572884
C          -0.6760871    -0.9981515     1.4216581
H          -1.2710493    -1.6768123     2.0274586
C           0.4967816    -1.4854760     0.8296438
C           0.8972688    -2.9262967     1.0350292
H           0.2097053    -3.4154628     1.7309266
H           1.9141902    -3.0003912     1.4327319
H           0.8892092    -3.4735757     0.0876842
S           2.7346920    -1.0571840    -0.8219021
N           3.8087354    -1.3975193     0.4738530
C           4.9897808    -2.1550209     0.0228322
H           5.6760889    -1.5437884    -0.5811977
H           4.6652178    -3.0184358    -0.5587026
H           5.5182449    -2.5051451     0.9148108
O           2.5151798    -2.3310336    -1.5165655
C           4.1806902    -0.2005945     1.2426161
O           3.2012162     0.1113810    -1.5857887
H           3.2828252     0.3329167     1.5623869
H           4.8222615     0.4854863     0.6720233
H           4.7159372    -0.5334960     2.1372484
26
197_C9H13NO2S_6-14-15-16 (180,) energy =    -954.1025005
C           0.9105084     0.7318495    -0.1836576
H           1.5332856     1.3526223    -0.8179430
C          -0.2508596     1.2327798     0.4014271
H          -0.5447353     2.2637097     0.2278610
C          -1.0255845     0.3981527     1.2054821
H          -1.9329051     0.7752896     1.6696330
C           1.2856193    -0.5949836     0.0422792
C          -0.6433813    -0.9270885     1.4159862
H          -1.2589447    -1.5695386     2.0404161
C           0.5135538    -1.4670333     0.8380100
C           0.8665145    -2.9156446     1.0777089
H           0.1906940    -3.3522139     1.8187724
H           1.8962816    -3.0238752     1.4310518
H           0.7917767    -3.4925219     0.1507277
S           2.7633562    -1.1600092    -0.8224732
N           3.8537632    -1.4847673     0.4747630
C           5.1408832    -1.9669371    -0.0690580
H           5.6955580    -1.1764875    -0.5933439
H           4.9552148    -2.7968965    -0.7531749
H           5.7389861    -2.3320563     0.7708759
O           2.5105906    -2.4482463    -1.4765572
C           4.0691274    -0.3208278     1.3545250
O           3.2585969    -0.0305369    -1.6282956
H           3.1214050     0.0099980     1.7825369
H           4.5473256     0.5208221     0.8330740
H           4.7180792    -0.6479345     2.1723134
