23
274_C8H12N2O_12-0-1-2 (-165,) energy =    -496.8008452
C           2.5927148    -0.7005474    -0.8911307
N           1.2593179    -0.4791585    -0.6143004
C           0.2906949    -1.4757661    -1.0442901
H          -0.3121700    -1.1093025    -1.8875345
H          -0.3881554    -1.7148601    -0.2155419
H           0.8240871    -2.3714121    -1.3591769
C           0.6974287     0.7391437    -0.0555838
H          -0.1225967     1.0887612    -0.6974825
H           0.2881727     0.5772627     0.9522602
H           1.4549291     1.5199852    -0.0058043
C           3.6091762     0.6667487     1.1013050
H           2.7823477     0.6501927     1.7974586
C           3.6004665     0.1149875    -0.1781867
N           4.8663399     0.3025389    -0.7151069
C           5.3409334    -0.1311359    -2.0250314
H           4.6461088     0.1807819    -2.8075207
H           5.4295117    -1.2176823    -2.0647218
H           6.3135395     0.3345452    -2.2018292
C           5.6399395     0.9635516     0.1970815
H           6.6630783     1.2203284    -0.0403236
C           4.8954557     1.1984648     1.3383000
H           5.2421484     1.6964906     2.2333444
O           2.9445715    -1.5987538    -1.6638717
23
274_C8H12N2O_12-0-1-2 (-150,) energy =    -496.7987037
C           2.5907729    -0.6159506    -0.9877113
N           1.2514372    -0.3935710    -0.7250833
C           0.3131260    -1.4882512    -0.9195435
H          -0.4883586    -1.2042528    -1.6148004
H          -0.1478751    -1.7654971     0.0393676
H           0.8510355    -2.3401873    -1.3334909
C           0.6968714     0.7972129    -0.1068068
H          -0.1948609     1.1092208    -0.6665551
H           0.3913499     0.6239433     0.9365743
H           1.4224448     1.6097757    -0.1298834
C           3.5702763     0.6683861     1.0747600
H           2.7166080     0.6673141     1.7373573
C           3.5949097     0.1472029    -0.2178157
N           4.8867723     0.3091323    -0.7009233
C           5.3994695    -0.1084851    -2.0018816
H           4.7441137     0.2409920    -2.8021448
H           5.4586862    -1.1960208    -2.0639975
H           6.3910506     0.3324466    -2.1301868
C           5.6441047     0.9184625     0.2581866
H           6.6843548     1.1451855     0.0692379
C           4.8623346     1.1493208     1.3757173
H           5.1891449     1.6123281     2.2966517
O           2.9440389    -1.5000408    -1.7752380
23
274_C8H12N2O_12-0-1-2 (-135,) energy =    -496.7946532
C           2.5605216    -0.5712287    -1.1021969
N           1.2073821    -0.3757406    -0.8476295
C           0.3421873    -1.5463508    -0.8117132
H          -0.5928416    -1.3584955    -1.3548382
H           0.0888391    -1.8060647     0.2277572
H           0.8594676    -2.3804240    -1.2853079
C           0.6541903     0.8053267    -0.2081585
H          -0.2821609     1.0771636    -0.7130111
H           0.4212172     0.6440297     0.8565072
H           1.3482393     1.6418255    -0.2922010
C           3.4871272     0.6217592     1.0347829
H           2.6076344     0.6253279     1.6620488
C           3.5510213     0.1414568    -0.2728988
N           4.8650184     0.2910158    -0.7003776
C           5.4194210    -0.0926893    -1.9947671
H           4.8058232     0.3028093    -2.8066049
H           5.4539292    -1.1784070    -2.0951095
H           6.4261356     0.3261581    -2.0670431
C           5.5965906     0.8479761     0.3079426
H           6.6488743     1.0545273     0.1687738
C           4.7761699     1.0601848     1.4020161
H           5.0769063     1.4837407     2.3503966
O           2.9240604    -1.4208910    -1.9201127
23
274_C8H12N2O_12-0-1-2 (-120,) energy =    -496.7893303
C           2.5497963    -0.5005290    -1.2051184
N           1.1827468    -0.3369188    -0.9398266
C           0.4145587    -1.5473352    -0.6755657
H          -0.6088967    -1.4432037    -1.0562176
H           0.3600764    -1.7525483     0.4060334
H           0.8892070    -2.3871780    -1.1840486
C           0.6462070     0.8570265    -0.3053144
H          -0.3211228     1.0981055    -0.7652984
H           0.4745913     0.7336199     0.7763931
H           1.3201039     1.7012477    -0.4572858
C           3.4476743     0.5792023     0.9991450
H           2.5507429     0.5844823     1.6007016
C           3.5367978     0.1469627    -0.3245793
N           4.8665235     0.2819280    -0.7100225
C           5.4477689    -0.0590904    -2.0046806
H           4.8684439     0.3888702    -2.8143362
H           5.4567208    -1.1397879    -2.1534227
H           6.4669680     0.3342710    -2.0296706
C           5.5812948     0.7794334     0.3393335
H           6.6421409     0.9635929     0.2386952
C           4.7353411     0.9684534     1.4190340
H           5.0197427     1.3458001     2.3916341
O           2.9117294    -1.2953755    -2.0741683
23
274_C8H12N2O_12-0-1-2 (-105,) energy =    -496.7865755
C           2.4625101    -0.0500467    -1.0746925
N           1.2115816    -0.0526298    -0.3395236
C           0.7077745    -1.4274813    -0.2057869
H           0.4590971    -1.8839736    -1.1781516
H          -0.1917654    -1.4180586     0.4189079
H           1.4611899    -2.0481544     0.2902453
C           0.2147880     0.7923013    -1.0122420
H          -0.0604636     0.4251198    -2.0122038
H          -0.6833096     0.8292527    -0.3866234
H           0.6059731     1.8094129    -1.1107100
C           3.6888229     0.4308828     1.1356602
H           2.8223844     0.5249330     1.7731881
C           3.6257583     0.1634631    -0.2338092
N           4.9334515     0.1312909    -0.7136886
C           5.3595998    -0.1074404    -2.0881951
H           4.9857362     0.6749966    -2.7515527
H           4.9791728    -1.0648840    -2.4490135
H           6.4520333    -0.1166445    -2.1059184
C           5.7793363     0.3734469     0.3246686
H           6.8486272     0.3978665     0.1625567
C           5.0432573     0.5634839     1.4871629
H           5.4509550     0.7771811     2.4656198
O           2.5071845    -0.1531189    -2.2960286
23
274_C8H12N2O_12-0-1-2 (-90,) energy =    -496.7900864
C           2.4509406     0.0954592    -1.1101305
N           1.2040404     0.0380879    -0.4015462
C           0.8085858    -1.3447928    -0.0916851
H           0.5566782    -1.9177879    -0.9994213
H          -0.0674306    -1.3306481     0.5653394
H           1.6221046    -1.8556647     0.4316632
C           0.1296790     0.7145848    -1.1402512
H          -0.1352255     0.2056838    -2.0783788
H          -0.7539959     0.7547216    -0.4949084
H           0.4349659     1.7364106    -1.3790582
C           3.6800042     0.3833131     1.1400939
H           2.8166527     0.5011016     1.7785484
C           3.6168021     0.1912724    -0.2405484
N           4.9237565     0.1151777    -0.7121410
C           5.3495686    -0.0755627    -2.0942880
H           5.0193517     0.7556016    -2.7194275
H           4.9270978    -0.9952771    -2.5050371
H           6.4401758    -0.1402967    -2.1053592
C           5.7737309     0.2574582     0.3433365
H           6.8440760     0.2360773     0.1887877
C           5.0376768     0.4260830     1.5075232
H           5.4455292     0.5718522     2.4983265
O           2.5078978     0.1846143    -2.3333068
23
274_C8H12N2O_12-0-1-2 (-75,) energy =    -496.7944423
C           2.4427533     0.2198524    -1.1199829
N           1.1953323     0.0934115    -0.4582120
C           0.8809417    -1.2570988     0.0277604
H           0.6029619    -1.9322493    -0.7979716
H           0.0414934    -1.2071485     0.7295939
H           1.7435066    -1.6770519     0.5494629
C           0.0818267     0.6411279    -1.2380815
H          -0.1570704     0.0344611    -2.1239281
H          -0.7999407     0.6858128    -0.5904413
H           0.3298705     1.6494424    -1.5743495
C           3.6757847     0.3381115     1.1552632
H           2.8198107     0.4628181     1.8030519
C           3.6070747     0.2101789    -0.2312406
N           4.9093907     0.1114183    -0.7058019
C           5.3303873    -0.0219048    -2.0962110
H           5.0804987     0.8751801    -2.6652737
H           4.8329342    -0.8711574    -2.5692663
H           6.4109989    -0.1830384    -2.1074155
C           5.7654386     0.1767323     0.3544421
H           6.8340687     0.1230026     0.1969878
C           5.0354055     0.3195680     1.5240557
H           5.4459604     0.4079781     2.5205364
O           2.5231317     0.4763299    -2.3199169
23
274_C8H12N2O_12-0-1-2 (-60,) energy =    -496.7980206
C           2.4584736     0.3181639    -1.1285635
N           1.2031677     0.1096620    -0.5406934
C           0.9281578    -1.1783765     0.1017999
H           0.5952024    -1.9266515    -0.6351936
H           0.1364776    -1.0606131     0.8503795
H           1.8240150    -1.5518498     0.5981592
C           0.0776573     0.5775313    -1.3478346
H          -0.1366631    -0.0894615    -2.1962233
H          -0.8090922     0.6291714    -0.7074893
H           0.2980693     1.5691096    -1.7443896
C           3.6858742     0.2929343     1.1650067
H           2.8365760     0.4192582     1.8218243
C           3.6141166     0.2142157    -0.2242757
N           4.9130192     0.1040159    -0.7016701
C           5.3326149     0.0158702    -2.0962360
H           5.1271396     0.9491713    -2.6228863
H           4.7974667    -0.7863085    -2.6087878
H           6.4041411    -0.1971471    -2.1130881
C           5.7718865     0.1093693     0.3599097
H           6.8383059     0.0300928     0.1991624
C           5.0458097     0.2293835     1.5329388
H           5.4567026     0.2715558     2.5323137
O           2.5708952     0.7117626    -2.2904007
23
274_C8H12N2O_12-0-1-2 (-45,) energy =    -496.8001072
C           2.4725637     0.3885116    -1.1260733
N           1.2124553     0.0920997    -0.6211596
C           0.9477962    -1.1132009     0.1606353
H           0.5183512    -1.9004625    -0.4781146
H           0.2318627    -0.9008153     0.9641384
H           1.8689993    -1.4897989     0.6026134
C           0.0833343     0.5141941    -1.4425504
H          -0.1328865    -0.2036141    -2.2480890
H          -0.8025963     0.6004520    -0.8043148
H           0.3046623     1.4792369    -1.8977001
C           3.6956602     0.2483717     1.1763255
H           2.8524740     0.3654680     1.8429941
C           3.6193185     0.2109307    -0.2142149
N           4.9159085     0.1045355    -0.6968400
C           5.3331968     0.0581119    -2.0942744
H           5.1471665     1.0140790    -2.5858099
H           4.7809072    -0.7136784    -2.6348004
H           6.3996110    -0.1783771    -2.1197914
C           5.7780787     0.0659009     0.3623295
H           6.8425091    -0.0265872     0.1960521
C           5.0564631     0.1589505     1.5393154
H           5.4687504     0.1642609     2.5389803
O           2.6131197     0.8897349    -2.2446736
23
274_C8H12N2O_12-0-1-2 (-30,) energy =    -496.8009554
C           2.5027424     0.4139267    -1.0912975
N           1.2395965     0.0358612    -0.6772571
C           0.9566436    -1.0687379     0.2283736
H           0.3996334    -1.8535015    -0.3037473
H           0.3446142    -0.7400046     1.0792447
H           1.8823663    -1.4990077     0.6064793
C           0.1123648     0.4582472    -1.4963136
H          -0.1760280    -0.3183699    -2.2203104
H          -0.7480499     0.6635414    -0.8487759
H           0.3866799     1.3573573    -2.0462540
C           3.7030537     0.1699435     1.2233894
H           2.8589459     0.2628460     1.8926472
C           3.6341898     0.1795351    -0.1682407
N           4.9342307     0.0921374    -0.6453818
C           5.3631427     0.0997542    -2.0401403
H           5.2053463     1.0816456    -2.4885438
H           4.7968916    -0.6321658    -2.6198358
H           6.4235204    -0.1626240    -2.0677303
C           5.7903313     0.0153031     0.4170187
H           6.8552318    -0.0761928     0.2534921
C           5.0620418     0.0672571     1.5915316
H           5.4673582     0.0347770     2.5935239
O           2.6747595     0.9977670    -2.1662990
23
274_C8H12N2O_12-0-1-2 (-15,) energy =    -496.8009754
C           2.4905369     0.4283976    -1.1004555
N           1.2381072    -0.0374558    -0.7604431
C           0.9408898    -1.0252104     0.2635317
H           0.2677059    -1.7854481    -0.1538745
H           0.4409104    -0.5765235     1.1342499
H           1.8532764    -1.5178569     0.5962437
C           0.1026649     0.3867958    -1.5660904
H          -0.2926529    -0.4495860    -2.1596818
H          -0.7010088     0.7570291    -0.9165401
H           0.4280583     1.1768077    -2.2408918
C           3.6933620     0.1128935     1.2125307
H           2.8532577     0.1752199     1.8898558
C           3.6193982     0.1668247    -0.1781665
N           4.9198231     0.1134803    -0.6600973
C           5.3473506     0.1669456    -2.0543375
H           5.1887647     1.1627676    -2.4704146
H           4.7811807    -0.5461509    -2.6569734
H           6.4078016    -0.0942198    -2.0912025
C           5.7798659     0.0111300     0.3972051
H           6.8449402    -0.0652761     0.2274078
C           5.0549718     0.0171767     1.5741562
H           5.4627567    -0.0438024     2.5738127
O           2.6724187     1.0721467    -2.1401924
23
274_C8H12N2O_12-0-1-2 (0,) energy =    -496.8003062
C           2.5064020     0.4280644    -1.0718514
N           1.2673711    -0.1181068    -0.8083668
C           0.9333752    -0.9803454     0.3119605
H           0.1847500    -1.7109406    -0.0165884
H           0.5065117    -0.4198456     1.1573794
H           1.8145997    -1.5214945     0.6545877
C           0.1379012     0.3159031    -1.6193460
H          -0.3601556    -0.5518303    -2.0707240
H          -0.5980924     0.8539898    -1.0055118
H           0.5076744     0.9726838    -2.4046856
C           3.7156660     0.0352446     1.2341349
H           2.8815611     0.0707653     1.9200798
C           3.6339126     0.1362567    -0.1540026
N           4.9335787     0.1108217    -0.6419438
C           5.3576028     0.2122680    -2.0346598
H           5.2005715     1.2223577    -2.4152990
H           4.7887293    -0.4783049    -2.6604381
H           6.4173391    -0.0500545    -2.0830819
C           5.7990245    -0.0232868     0.4074651
H           6.8635205    -0.0899145     0.2301829
C           5.0797607    -0.0626590     1.5865037
H           5.4917071    -0.1562670     2.5819055
O           2.6950118     1.1250316    -2.0756920
23
274_C8H12N2O_12-0-1-2 (15,) energy =    -496.8009754
C           2.7661191    -0.8166531    -0.2229861
N           1.3947238    -0.6963494    -0.3005107
C           0.6645724     0.4134027    -0.8902996
H           0.1547167     1.0208378    -0.1283815
H          -0.1010218     0.0194660    -1.5715085
H           1.3363509     1.0537890    -1.4599190
C           0.5786495    -1.8234030     0.1261729
H          -0.1998453    -1.4815851     0.8204252
H           0.0873884    -2.3008517    -0.7334008
H           1.2196599    -2.5534078     0.6176556
C           3.4037206     1.7300195    -0.1584735
H           2.5032961     2.1554674     0.2618347
C           3.5985231     0.3842925    -0.4642318
N           4.9018755     0.2526975    -0.9226677
C           5.5718599    -0.9755359    -1.3375263
H           4.9535246    -1.5291536    -2.0470289
H           5.7633051    -1.6213735    -0.4795205
H           6.5123007    -0.6990203    -1.8204682
C           5.4981662     1.4825225    -0.9204791
H           6.5163862     1.5946564    -1.2664649
C           4.6017733     2.4207065    -0.4440208
H           4.7914508     3.4781911    -0.3212657
O           3.2978304    -1.8952295     0.0642470
23
274_C8H12N2O_12-0-1-2 (30,) energy =    -496.8009554
C           2.7721493    -0.8019329    -0.2367446
N           1.4007898    -0.6329903    -0.2096929
C           0.6741604     0.3932683    -0.9439762
H           0.0297015     0.9806959    -0.2759727
H           0.0326125    -0.0760118    -1.7038838
H           1.3670919     1.0664377    -1.4457207
C           0.5944023    -1.7703613     0.2098803
H          -0.2816110    -1.4086960     0.7608457
H           0.2438437    -2.3583382    -0.6514372
H           1.1937935    -2.4178978     0.8482446
C           3.4262184     1.7303858    -0.1040638
H           2.5316457     2.1406703     0.3436653
C           3.6141421     0.3945238    -0.4528132
N           4.9071497     0.2746801    -0.9418713
C           5.5662608    -0.9438662    -1.4002297
H           4.9386782    -1.4717473    -2.1212538
H           5.7605424    -1.6171206    -0.5641320
H           6.5046380    -0.6583292    -1.8818119
C           5.5056242     1.5029021    -0.9135060
H           6.5185102     1.6241677    -1.2719504
C           4.6187499     2.4281053    -0.3938537
H           4.8133021     3.4810873    -0.2431776
O           3.2848303    -1.9034004    -0.0131036
23
274_C8H12N2O_12-0-1-2 (45,) energy =    -496.8001072
C           2.7430402    -0.8366646    -0.2634446
N           1.3800589    -0.5985108    -0.1360254
C           0.6660716     0.3365593    -1.0019719
H          -0.0993602     0.8791134    -0.4336104
H           0.1637942    -0.2023981    -1.8201696
H           1.3575945     1.0575758    -1.4352353
C           0.5722277    -1.7384840     0.2830574
H          -0.3581269    -1.3662099     0.7252229
H           0.3203943    -2.3988848    -0.5603542
H           1.1220619    -2.3232200     1.0200927
C           3.4486867     1.6672145    -0.0414104
H           2.5619296     2.0700725     0.4281519
C           3.6167463     0.3406825    -0.4324369
N           4.9023884     0.2188995    -0.9400645
C           5.5365128    -0.9933727    -1.4474005
H           4.9044185    -1.4722582    -2.1983851
H           5.7048973    -1.7086837    -0.6411349
H           6.4871611    -0.7099759    -1.9054085
C           5.5174149     1.4373244    -0.8779896
H           6.5300852     1.5560887    -1.2380010
C           4.6474136     2.3576487    -0.3205098
H           4.8590989     3.4019924    -0.1364591
O           3.2116730    -1.9692339    -0.1223157
23
274_C8H12N2O_12-0-1-2 (60,) energy =    -496.7980206
C           2.7113151    -0.8273092    -0.3271599
N           1.3614835    -0.5283541    -0.0959937
C           0.6406238     0.2901364    -1.0747203
H          -0.2119508     0.7827834    -0.5936665
H           0.2578005    -0.3269499    -1.9033245
H           1.2992028     1.0558521    -1.4850473
C           0.5667611    -1.6637988     0.3691234
H          -0.3740174    -1.2822916     0.7795153
H           0.3380467    -2.3752120    -0.4384390
H           1.1122850    -2.1989915     1.1469649
C           3.4533943     1.6445755    -0.0004831
H           2.5650963     2.0346562     0.4764219
C           3.6145138     0.3292014    -0.4309284
N           4.9003845     0.2137432    -0.9412258
C           5.5250046    -0.9862998    -1.4874772
H           4.8959620    -1.4280540    -2.2631977
H           5.6752361    -1.7346636    -0.7077248
H           6.4852168    -0.6985106    -1.9222170
C           5.5236294     1.4242092    -0.8364797
H           6.5407243     1.5458505    -1.1830287
C           4.6573376     2.3339240    -0.2537742
H           4.8776256     3.3697425    -0.0348787
O           3.1322843    -1.9844689    -0.2926499
23
274_C8H12N2O_12-0-1-2 (75,) energy =    -496.7944423
C           2.6685677    -0.8018639    -0.4138252
N           1.3348672    -0.4486800    -0.0874918
C           0.5881891     0.2255902    -1.1583426
H          -0.3193426     0.6770490    -0.7432405
H           0.2929623    -0.4779535    -1.9538307
H           1.1982502     1.0172589    -1.5983860
C           0.5679775    -1.5725664     0.4573441
H          -0.3712608    -1.1814611     0.8620863
H           0.3388987    -2.3383052    -0.2983059
H           1.1332839    -2.0476347     1.2611093
C           3.4576956     1.6232228     0.0415100
H           2.5642706     2.0034958     0.5159123
C           3.6080215     0.3217803    -0.4350720
N           4.8996758     0.2073703    -0.9345996
C           5.5127759    -0.9787005    -1.5224730
H           4.8997000    -1.3638824    -2.3399348
H           5.6189027    -1.7701288    -0.7785536
H           6.4944654    -0.6945198    -1.9089156
C           5.5365472     1.4030184    -0.7732867
H           6.5619821     1.5228224    -1.0954345
C           4.6732364     2.3036477    -0.1692108
H           4.9061057     3.3267173     0.0924110
O           3.0293501    -1.9733555    -0.5114293
23
274_C8H12N2O_12-0-1-2 (90,) energy =    -496.7900864
C           2.6412361    -0.7638590    -0.5297853
N           1.3180960    -0.3810679    -0.1261591
C           0.5177244     0.1139423    -1.2571445
H          -0.4259371     0.5218736    -0.8798104
H           0.2892854    -0.6828777    -1.9842342
H           1.0567211     0.9148801    -1.7716127
C           0.6153250    -1.4842148     0.5422461
H          -0.3265226    -1.0947640     0.9425093
H           0.3972179    -2.3266932    -0.1299870
H           1.2208813    -1.8561540     1.3724989
C           3.4765250     1.6001724     0.0790002
H           2.5759465     1.9713193     0.5459930
C           3.6138429     0.3193701    -0.4574105
N           4.9154223     0.2040199    -0.9358504
C           5.5162200    -0.9607418    -1.5764753
H           4.9440295    -1.2537686    -2.4595408
H           5.5387642    -1.8104334    -0.8922293
H           6.5331567    -0.6947258    -1.8744895
C           5.5680118     1.3771678    -0.7022180
H           6.6032089     1.4931896    -0.9935719
C           4.7068838     2.2656736    -0.0740808
H           4.9535754     3.2704031     0.2404752
O           2.9392313    -1.9270625    -0.7857340
23
274_C8H12N2O_12-0-1-2 (105,) energy =    -496.7865755
C           2.6068444    -0.6962836    -0.6594507
N           1.2897749    -0.3010663    -0.1963815
C           0.4207040    -0.0005765    -1.3437023
H          -0.5406675     0.3721022    -0.9744058
H           0.2381541    -0.8828068    -1.9793627
H           0.8783286     0.7836119    -1.9557038
C           0.6936466    -1.3592469     0.6312300
H          -0.2591547    -0.9912575     1.0263207
H           0.5148264    -2.2931745     0.0777757
H           1.3539810    -1.5766556     1.4761736
C           3.4984074     1.5878875     0.1205959
H           2.5887169     1.9625132     0.5657046
C           3.6136599     0.3338781    -0.4836508
N           4.9291915     0.2014290    -0.9232127
C           5.5160816    -0.9457156    -1.6069394
H           4.9645956    -1.1732565    -2.5211064
H           5.4911455    -1.8316281    -0.9693173
H           6.5508137    -0.6974805    -1.8549687
C           5.6077366     1.3359413    -0.5994764
H           6.6555614     1.4347150    -0.8496093
C           4.7526238     2.2182426     0.0483244
H           5.0195816     3.1966625     0.4234109
O           2.8414115    -1.8194272    -1.0928185
23
274_C8H12N2O_12-0-1-2 (120,) energy =    -496.7893304
C           2.5923143    -0.7019664    -1.1362164
N           1.2944680    -0.8154076    -0.6178531
C           0.1956627    -0.4903176    -1.5189908
H          -0.1057114     0.5643242    -1.4102438
H          -0.6765436    -1.1195932    -1.3034394
H           0.5116795    -0.6767177    -2.5459121
C           0.9919751    -0.5999686     0.7885925
H           0.6016834     0.4091296     0.9987194
H           0.2237753    -1.3199802     1.0998470
H           1.8832101    -0.7625593     1.3962173
C           3.3344503     1.3688004     0.2751770
H           2.3786204     1.7211405     0.6338208
C           3.5413769     0.2301078    -0.5043114
N           4.9054985     0.1564061    -0.7663517
C           5.5974277    -0.8557439    -1.5582314
H           5.3438172    -0.7618157    -2.6151074
H           5.3143286    -1.8578259    -1.2303591
H           6.6719258    -0.7188738    -1.4138515
C           5.5263315     1.2149168    -0.1716368
H           6.5978743     1.3354160    -0.2535297
C           4.5818978     1.9926534     0.4766627
H           4.7770575     2.9006802     1.0304036
O           2.8785731    -1.2667518    -2.1931480
23
274_C8H12N2O_12-0-1-2 (135,) energy =    -496.7946532
C           2.5650237    -0.5868019    -1.1774041
N           1.2907724    -0.7136467    -0.6349955
C           0.1519268    -0.6366017    -1.5390283
H          -0.3444527     0.3421156    -1.4503902
H          -0.5850798    -1.4160564    -1.3070319
H           0.5034319    -0.7813929    -2.5603166
C           0.9683051    -0.4951737     0.7643444
H           0.5129971     0.4911292     0.9479405
H           0.2456623    -1.2568161     1.0856077
H           1.8643445    -0.5872945     1.3784507
C           3.3767805     1.4028549     0.3161813
H           2.4323578     1.7840415     0.6763825
C           3.5440817     0.2836049    -0.4987385
N           4.9048029     0.1632469    -0.7549371
C           5.5598512    -0.8460461    -1.5809342
H           5.3199548    -0.6995240    -2.6349865
H           5.2310534    -1.8471346    -1.2950787
H           6.6378794    -0.7620673    -1.4230260
C           5.5648442     1.1742278    -0.1190277
H           6.6412087     1.2515054    -0.1883066
C           4.6481559     1.9667119     0.5493786
H           4.8754808     2.8458606     1.1364803
O           2.8288501    -1.0909841    -2.2725137
23
274_C8H12N2O_12-0-1-2 (150,) energy =    -496.7987036
C           2.5611060    -0.4613731    -1.1954188
N           1.3056512    -0.5834801    -0.6286046
C           0.1594754    -0.7583147    -1.5073780
H          -0.5233830     0.0982191    -1.4126547
H          -0.3983856    -1.6699549    -1.2541640
H           0.5151076    -0.8384151    -2.5338288
C           0.9880164    -0.3871963     0.7743637
H           0.4643158     0.5639541     0.9562193
H           0.3284347    -1.1987918     1.1092178
H           1.8964001    -0.4084552     1.3757164
C           3.4606660     1.4507706     0.3529114
H           2.5330628     1.8726309     0.7125899
C           3.5771798     0.3451765    -0.4879741
N           4.9303103     0.1642018    -0.7426164
C           5.5380577    -0.8540074    -1.5932919
H           5.3144384    -0.6647751    -2.6441441
H           5.1551536    -1.8442972    -1.3388351
H           6.6177249    -0.8315961    -1.4261544
C           5.6375671     1.1235079    -0.0761147
H           6.7169093     1.1464423    -0.1371008
C           4.7581941     1.9434342     0.6078192
H           5.0256571     2.7943578     1.2191238
O           2.8006609    -0.9316965    -2.3125534
23
274_C8H12N2O_12-0-1-2 (165,) energy =    -496.8008451
C           2.5578901    -0.3181485    -1.2262285
N           1.3037679    -0.4262791    -0.6619843
C           0.1997585    -0.8489335    -1.5100771
H          -0.6579364    -0.1802310    -1.3621565
H          -0.1181528    -1.8739484    -1.2712405
H           0.5225558    -0.8165809    -2.5496180
C           0.9914613    -0.2970553     0.7515579
H           0.3806586     0.5941424     0.9566392
H           0.4207985    -1.1765760     1.0792819
H           1.9060671    -0.2390922     1.3399509
C           3.5236403     1.5130560     0.3820473
H           2.6107008     1.9762586     0.7292516
C           3.5999541     0.4209813    -0.4800638
N           4.9455177     0.1768825    -0.7160312
C           5.5161492    -0.8514628    -1.5798568
H           5.3225024    -0.6268673    -2.6296916
H           5.0787769    -1.8265717    -1.3559983
H           6.5921800    -0.8888952    -1.3931832
C           5.6890571     1.0819194    -0.0121028
H           6.7690714     1.0473981    -0.0506883
C           4.8402933     1.9308660     0.6740150
H           5.1393119     2.7520605     1.3108540
O           2.7927266    -0.7674544    -2.3535324
23
274_C8H12N2O_12-0-1-2 (180,) energy =    -496.8005688
C           2.6316257    -0.7541412    -0.7564502
N           1.2919199    -0.5434765    -0.4995475
C           0.3367105    -1.4274637    -1.1548478
H          -0.0515282    -0.9764865    -2.0799172
H          -0.5072299    -1.6185346    -0.4820555
H           0.8314389    -2.3647822    -1.4039132
C           0.7171574     0.6871357     0.0266385
H          -0.0322374     1.0725680    -0.6781003
H           0.2170068     0.5171136     0.9899455
H           1.4864767     1.4459246     0.1579289
C           3.6616961     0.7245501     1.1534326
H           2.8622662     0.7007237     1.8809417
C           3.6279072     0.1277285    -0.1055065
N           4.8679174     0.3373721    -0.6921896
C           5.3167844    -0.1290189    -2.0001401
H           4.5808016     0.1159860    -2.7684750
H           5.4572252    -1.2108315    -1.9988354
H           6.2586791     0.3743860    -2.2314898
C           5.6471472     1.0607941     0.1669171
H           6.6493368     1.3491697    -0.1185573
C           4.9347731     1.3110207     1.3247789
H           5.2928931     1.8551228     2.1879223
O           3.0009939    -1.6661420    -1.5044026
