22
229_C7H11N3O_5-7-14-15 (-165,) energy =    -512.8601489
C          -0.0164864    -0.8989298    -1.6956552
C          -1.3344375    -0.1387083    -1.7016147
H          -1.2806151     0.8372667    -1.2095620
H          -2.0958647    -0.7471097    -1.2033372
H          -1.6563955     0.0012632    -2.7380482
N           1.0172855    -0.2820822    -1.0610234
H           0.9167877     0.6003326    -0.5742404
C           2.3122020    -0.9205759    -0.9561212
H           2.6541672    -1.2195097    -1.9564535
H           2.2358338    -1.8538493    -0.3761171
O           0.1117504    -1.9954542    -2.2326414
C           4.0746538     1.7326513     0.7380119
H           4.0712630     2.6671395     1.2822232
N           2.9053035     1.1452373     0.3105917
C           3.2698446     0.0416567    -0.3148913
N           4.6307157    -0.1084487    -0.3254382
C           5.3895118    -1.2242064    -0.8679121
H           5.4128595    -2.0699216    -0.1712588
H           6.4134883    -0.8984704    -1.0630418
H           4.9468475    -1.5557942    -1.8107117
C           5.1518136     0.9749957     0.3619757
H           6.2159213     1.0948503     0.5023899
22
229_C7H11N3O_5-7-14-15 (-150,) energy =    -512.8592636
C           0.0576912    -0.9786032    -1.7388385
C          -1.2304778    -0.1826745    -1.8885014
H          -1.2081125     0.7885266    -1.3846355
H          -2.0597272    -0.7728844    -1.4855132
H          -1.4276851    -0.0286037    -2.9536427
N           1.0171716    -0.4029140    -0.9629396
H           0.8737436     0.4748534    -0.4799375
C           2.2811067    -1.0681768    -0.7126724
H           2.6252891    -1.5219564    -1.6486029
H           2.1495668    -1.9005494    -0.0027483
O           0.2242848    -2.0652641    -2.2851130
C           4.0822863     1.6725775     0.7833152
H           4.0879786     2.6012752     1.3375529
N           2.9095037     1.0113964     0.5009518
C           3.2614535    -0.0622965    -0.1823847
N           4.6174110    -0.1188147    -0.3719809
C           5.3827302    -1.1697333    -1.0247623
H           5.5971818    -1.9961478    -0.3377524
H           6.3268225    -0.7531005    -1.3827283
H           4.8300045    -1.5585774    -1.8830746
C           5.1498838     0.9914497     0.2609547
H           6.2131843     1.1804956     0.2676494
22
229_C7H11N3O_5-7-14-15 (-135,) energy =    -512.8584574
C           0.3964315    -0.8412883    -1.7304398
C          -0.8789004    -0.0718979    -2.0356409
H          -1.3684583     0.3323844    -1.1444828
H          -1.5730178    -0.7354194    -2.5584633
H          -0.6407032     0.7545704    -2.7140371
N           0.8448541    -0.7417401    -0.4372504
H           0.4914003     0.0105366     0.1403949
C           2.1650913    -1.2382213    -0.0765990
H           2.4608746    -1.9322398    -0.8648115
H           2.0905939    -1.8038283     0.8613698
O           0.9671382    -1.5167593    -2.5801152
C           4.0567897     1.7342582     0.6892814
H           4.1350245     2.7043685     1.1615265
N           2.9036242     0.9892524     0.7634734
C           3.1523763    -0.1147436     0.0817281
N           4.4231804    -0.1200680    -0.4304415
C           5.0344503    -1.1476865    -1.2621938
H           5.2706348    -2.0443830    -0.6791291
H           5.9600069    -0.7521987    -1.6847275
H           4.3644516    -1.4188017    -2.0829670
C           5.0096693     1.0700146    -0.0399246
H           6.0232336     1.3180457    -0.3185605
22
229_C7H11N3O_5-7-14-15 (-120,) energy =    -512.8600520
C           0.5927411    -0.7758438    -1.7213600
C          -0.6907901    -0.1008184    -2.1756446
H          -1.3669302     0.1489925    -1.3524732
H          -1.2066152    -0.7622493    -2.8770115
H          -0.4367258     0.8172854    -2.7164775
N           0.8069277    -0.7939010    -0.3678455
H           0.2891163    -0.1427155     0.2076021
C           2.1014824    -1.2247415     0.1534075
H           2.4443113    -2.0454266    -0.4765005
H           1.9410267    -1.6141503     1.1641391
O           1.3729777    -1.2898973    -2.5184432
C           4.1147817     1.7042130     0.7521314
H           4.2730274     2.6547471     1.2441039
N           2.9706799     0.9714364     0.9560197
C           3.1085525    -0.1098851     0.2076669
N           4.3036620    -0.1156871    -0.4635774
C           4.7621243    -1.1023767    -1.4351019
H           5.1583091    -1.9954431    -0.9388775
H           5.5558426    -0.6575716    -2.0388024
H           3.9329899    -1.3812314    -2.0905721
C           4.9531420     1.0529957    -0.1180047
H           5.9240073     1.2999785    -0.5217447
22
229_C7H11N3O_5-7-14-15 (-105,) energy =    -512.8614236
C           0.6708794    -0.8456766    -1.6937456
C          -0.5881854    -0.1863186    -2.2333783
H          -1.2431131     0.2134531    -1.4532999
H          -1.1421401    -0.9204902    -2.8250285
H          -0.3010357     0.6276549    -2.9074148
N           0.8757134    -0.7191244    -0.3488997
H           0.3323945    -0.0384959     0.1645175
C           2.1176901    -1.1722527     0.2776846
H           2.4508282    -2.0514809    -0.2746378
H           1.8822169    -1.4766772     1.3015116
O           1.4377277    -1.4680217    -2.4257808
C           4.2836997     1.6358591     0.9089290
H           4.5200399     2.5370544     1.4590558
N           3.1540183     0.9044457     1.1812765
C           3.1793119    -0.1106653     0.3331847
N           4.2848412    -0.0682480    -0.4780373
C           4.6533220    -1.0082246    -1.5318867
H           5.1933896    -1.8693096    -1.1214943
H           5.3021920    -0.4969020    -2.2465800
H           3.7538053    -1.3474360    -2.0510170
C           4.9987512     1.0532991    -0.1080153
H           5.9262046     1.3176025    -0.5946147
22
229_C7H11N3O_5-7-14-15 (-90,) energy =    -512.8618249
C           0.6581302    -0.9685337    -1.7185481
C          -0.5534772    -0.3055044    -2.3547834
H          -1.1409444     0.3013100    -1.6590552
H          -1.1947589    -1.0833871    -2.7793290
H          -0.2169190     0.3273493    -3.1823209
N           0.8879671    -0.6492349    -0.4126596
H           0.3556802     0.0972110     0.0124640
C           2.0485254    -1.1420196     0.3309234
H           2.3535324    -2.0731150    -0.1499326
H           1.7299946    -1.3661840     1.3523865
O           1.3680756    -1.7506417    -2.3485445
C           4.3852575     1.4945087     1.0762140
H           4.7006348     2.3234365     1.6959658
N           3.2582230     0.7667719     1.3684925
C           3.1744974    -0.1523280     0.4198762
N           4.2017025    -0.0423603    -0.4849810
C           4.4919089    -0.9022261    -1.6281226
H           5.1912924    -1.6990608    -1.3493684
H           4.9446887    -0.2995492    -2.4198039
H           3.5669681    -1.3416075    -2.0078133
C           4.9847500     1.0112078    -0.0599330
H           5.8774399     1.3011197    -0.5949010
22
229_C7H11N3O_5-7-14-15 (-75,) energy =    -512.8614715
C           0.7647994    -1.0487691    -1.6592807
C          -0.3887764    -0.4158251    -2.4219365
H          -0.8354698     0.4452449    -1.9153704
H          -1.1621865    -1.1741924    -2.5795112
H          -0.0316228    -0.1057007    -3.4084673
N           1.0384372    -0.5008460    -0.4406877
H           0.5314963     0.3206587    -0.1425805
C           2.0883281    -1.0019229     0.4467020
H           2.3567308    -1.9912804     0.0685941
H           1.6805285    -1.1148600     1.4548863
O           1.3963745    -1.9983786    -2.1192348
C           4.6239456     1.4012321     1.3181291
H           5.0283948     2.1313911     2.0065177
N           3.4759136     0.7037461     1.6043034
C           3.2769479    -0.0926793     0.5666249
N           4.2478124     0.0723687    -0.3917657
C           4.4169091    -0.6526904    -1.6459774
H           5.3021575    -1.2962956    -1.5979011
H           4.5425836     0.0571773    -2.4697454
H           3.5374184    -1.2669387    -1.8473766
C           5.1171742     1.0279246     0.0934404
H           5.9868932     1.3357521    -0.4689971
22
229_C7H11N3O_5-7-14-15 (-60,) energy =    -512.8604989
C           0.8182755    -1.1331278    -1.5780797
C          -0.2561069    -0.5382683    -2.4756957
H          -0.5976821     0.4529733    -2.1616445
H          -1.1139763    -1.2181474    -2.4931715
H           0.1308957    -0.4774929    -3.4970391
N           1.1343572    -0.3988056    -0.4704507
H           0.6685671     0.4842898    -0.3155883
C           2.0716364    -0.8588657     0.5519667
H           2.2869421    -1.9028291     0.3046120
H           1.5955221    -0.8313530     1.5362149
O           1.3610994    -2.2027922    -1.8431657
C           4.8235329     1.2874228     1.4414142
H           5.3302989     1.9146000     2.1627367
N           3.6509448     0.6418421     1.7509077
C           3.3225151    -0.0360329     0.6638316
N           4.2314061     0.1577368    -0.3480965
C           4.2267908    -0.4173523    -1.6870783
H           5.2334342    -0.7633610    -1.9387201
H           3.9134824     0.3260515    -2.4291302
H           3.5402975    -1.2645128    -1.7308863
C           5.1986832     1.0061593     0.1522348
H           6.0416245     1.3158942    -0.4485764
22
229_C7H11N3O_5-7-14-15 (-45,) energy =    -512.8584460
C           0.8395412    -1.1870880    -1.5404944
C          -0.1793725    -0.6375156    -2.5274422
H          -0.4749695     0.3977962    -2.3305531
H          -1.0719224    -1.2707950    -2.4985283
H           0.2346958    -0.7065398    -3.5375620
N           1.1666685    -0.3536987    -0.5068118
H           0.7190523     0.5504132    -0.4501595
C           2.0193846    -0.7602173     0.6054612
H           2.1599037    -1.8398065     0.4822157
H           1.5101423    -0.5932359     1.5586456
O           1.3371162    -2.3005609    -1.6780637
C           4.9678377     1.1144290     1.4842415
H           5.5588903     1.6398993     2.2224769
N           3.7785834     0.5099026     1.8135091
C           3.3379855    -0.0414768     0.6954105
N           4.1838062     0.2066563    -0.3583695
C           4.0797992    -0.2697374    -1.7320409
H           5.0849320    -0.4440430    -2.1243281
H           3.5748367     0.4654291    -2.3690217
H           3.5223432    -1.2074620    -1.7647934
C           5.2355853     0.9444188     0.1504584
H           6.0536452     1.2640350    -0.4787123
22
229_C7H11N3O_5-7-14-15 (-30,) energy =    -512.8553616
C           0.8498850    -1.2337835    -1.5239120
C          -0.1288261    -0.7646173    -2.5902285
H          -0.4315253     0.2821787    -2.4868501
H          -1.0220944    -1.3960393    -2.5474259
H           0.3245323    -0.9109501    -3.5749779
N           1.1487200    -0.3161288    -0.5533196
H           0.6919082     0.5845516    -0.5829900
C           1.9317660    -0.6413758     0.6317200
H           1.9831656    -1.7358956     0.6572818
H           1.4073475    -0.3132092     1.5332116
O           1.3455273    -2.3550011    -1.5487153
C           5.0595544     0.9087724     1.5170696
H           5.7172228     1.3138043     2.2746265
N           3.8439085     0.3575813     1.8422866
C           3.3164299    -0.0448598     0.6990905
N           4.1292904     0.2577298    -0.3667989
C           3.9647423    -0.1006576    -1.7712611
H           4.9517109    -0.1379593    -2.2381226
H           3.3515314     0.6354547    -2.3019625
H           3.4988142    -1.0839533    -1.8580153
C           5.2562508     0.8612983     0.1621130
H           6.0683081     1.1849034    -0.4726038
22
229_C7H11N3O_5-7-14-15 (-15,) energy =    -512.8521653
C           0.8801161    -1.2718200    -1.4603400
C          -0.0720441    -0.9295481    -2.5971178
H          -0.4025997     0.1140011    -2.6022931
H          -0.9517241    -1.5771909    -2.5241147
H           0.4180667    -1.1546903    -3.5487473
N           1.1088209    -0.2662610    -0.5592509
H           0.6208675     0.6097689    -0.6795973
C           1.8435240    -0.4720009     0.6802915
H           1.8037894    -1.5477574     0.8846629
H           1.3236297     0.0340510     1.4983569
O           1.4137696    -2.3707423    -1.3689071
C           5.1371176     0.6800675     1.5612602
H           5.8526382     0.9408567     2.3297074
N           3.8835137     0.2148602     1.8758928
C           3.2847480    -0.0128604     0.7205241
N           4.0902419     0.3218731    -0.3414384
C           3.8714878     0.1142347    -1.7692929
H           4.8288637     0.2305375    -2.2816338
H           3.1656602     0.8445968    -2.1760188
H           3.4946420    -0.8940628    -1.9533824
C           5.2882825     0.7548130     0.2026647
H           6.1091269     1.0628805    -0.4282432
22
229_C7H11N3O_5-7-14-15 (0,) energy =    -512.8499198
C           0.6262244    -0.4119630    -1.1730131
C          -0.0792830    -0.9154446    -2.4243709
H           0.3113706    -1.8651736    -2.8037049
H           0.0032432    -0.1561477    -3.2071296
H          -1.1443783    -1.0376564    -2.2015636
N           1.5409566    -1.2713925    -0.6237028
H           1.6533639    -2.1858667    -1.0361992
C           2.1536509    -1.0289038     0.6745567
H           2.3267678    -1.9966207     1.1550140
H           1.4251050    -0.4892338     1.2887518
O           0.3977714     0.6911461    -0.6940435
C           5.2416888     0.5834247     1.5664418
H           5.9544879     0.8517313     2.3348329
N           4.0857913    -0.0952522     1.8655543
C           3.4537938    -0.2528704     0.7167936
N           4.1681325     0.2766915    -0.3305169
C           3.7960252     0.4266146    -1.7329321
H           4.5969885     0.9690081    -2.2395594
H           2.8690025     0.9978518    -1.8249446
H           3.6729684    -0.5453431    -2.2169644
C           5.3145269     0.8262125     0.2215780
H           6.0446101     1.3298166    -0.3948277
22
229_C7H11N3O_5-7-14-15 (15,) energy =    -512.8521642
C           0.5961647    -0.4468979    -1.2336623
C          -0.0147654    -1.0791171    -2.4758771
H           0.4470848    -2.0286164    -2.7647775
H           0.0657041    -0.3733941    -3.3075100
H          -1.0814644    -1.2478352    -2.2951929
N           1.5326028    -1.2069991    -0.5847935
H           1.7339295    -2.1308777    -0.9396395
C           2.0795605    -0.8424902     0.7140008
H           2.1247399    -1.7310155     1.3496660
H           1.3593489    -0.1526281     1.1676594
O           0.2764193     0.6715741    -0.8496607
C           5.3811018     0.3488707     1.5104580
H           6.1706837     0.4729546     2.2396306
N           4.1801287    -0.2286441     1.8430141
C           3.4550811    -0.2119197     0.7386288
N           4.1537316     0.3243391    -0.3162893
C           3.6946800     0.6384885    -1.6654046
H           4.4219458     1.3109877    -2.1251943
H           2.7254642     1.1403106    -1.6296384
H           3.6134253    -0.2629223    -2.2801697
C           5.3893411     0.6971991     0.1864312
H           6.1296024     1.1682740    -0.4435219
22
229_C7H11N3O_5-7-14-15 (30,) energy =    -512.8553625
C           0.5919284    -0.4869420    -1.2925265
C           0.0501418    -1.2399629    -2.4985391
H           0.5579235    -2.1897113    -2.6942905
H           0.1333553    -0.5995076    -3.3811446
H          -1.0151337    -1.4370625    -2.3394101
N           1.5309498    -1.1550546    -0.5539636
H           1.7833715    -2.0939042    -0.8290289
C           2.0313102    -0.6645719     0.7236787
H           1.9609460    -1.4478560     1.4832286
H           1.3492671     0.1425032     1.0147482
O           0.2164176     0.6467051    -1.0146662
C           5.4768878     0.1222866     1.4155747
H           6.3183003     0.1045849     2.0954133
N           4.2473889    -0.3687513     1.7824948
C           3.4606232    -0.1802751     0.7372391
N           4.1431676     0.3833148    -0.3139111
C           3.6252408     0.8404626    -1.5987472
H           4.2799525     1.6293034    -1.9763003
H           2.6198838     1.2478544    -1.4772966
H           3.5967124     0.0259599    -2.3303852
C           5.4381474     0.5881902     0.1278340
H           6.1827664     1.0405265    -0.5108851
22
229_C7H11N3O_5-7-14-15 (45,) energy =    -512.8584472
C           0.6122571    -0.5232097    -1.3202162
C           0.1027378    -1.3762546    -2.4722017
H           0.6125890    -2.3398531    -2.5700997
H           0.2143091    -0.8141704    -3.4037211
H          -0.9674680    -1.5574836    -2.3280889
N           1.5247056    -1.1264596    -0.4992609
H           1.7957973    -2.0807449    -0.6912230
C           2.0145109    -0.5162166     0.7325072
H           1.8554299    -1.1873245     1.5811586
H           1.3912458     0.3721364     0.8830654
O           0.2298856     0.6307410    -1.1519288
C           5.5400217    -0.0772237     1.3277942
H           6.4090036    -0.2206306     1.9560744
N           4.2957302    -0.5143340     1.7133969
C           3.4779531    -0.1674261     0.7340813
N           4.1498893     0.4551072    -0.2898581
C           3.6021776     1.0283852    -1.5129997
H           4.1894218     1.9087239    -1.7863367
H           2.5657500     1.3322105    -1.3558002
H           3.6392572     0.3088063    -2.3387970
C           5.4754145     0.5193928     0.0950760
H           6.2221798     0.9784406    -0.5364900
22
229_C7H11N3O_5-7-14-15 (60,) energy =    -512.8605006
C           0.6010400    -0.5947058    -1.3861017
C           0.0986418    -1.5433903    -2.4638061
H           0.5655263    -2.5329222    -2.4358849
H           0.2756533    -1.0899505    -3.4432198
H          -0.9840175    -1.6613864    -2.3507605
N           1.4509733    -1.1429541    -0.4679053
H           1.7095360    -2.1156759    -0.5561241
C           1.9499724    -0.4117985     0.6948411
H           1.7271078    -0.9666541     1.6106293
H           1.3861143     0.5257850     0.7165512
O           0.2592733     0.5848071    -1.3537935
C           5.5083314    -0.2711183     1.2342215
H           6.3806190    -0.5304167     1.8193213
N           4.2484383    -0.6716962     1.6084901
C           3.4329868    -0.1775317     0.6920708
N           4.1185634     0.5182768    -0.2740369
C           3.5820765     1.2092955    -1.4394312
H           4.0671553     2.1844614    -1.5400938
H           2.5070641     1.3593209    -1.3266617
H           3.7612979     0.6301238    -2.3525982
C           5.4529883     0.4603947     0.0751275
H           6.2131465     0.9407172    -0.5239566
22
229_C7H11N3O_5-7-14-15 (75,) energy =    -512.8614700
C           0.6387091    -0.6466093    -1.4751926
C           0.1111468    -1.6978864    -2.4393075
H           0.4316288    -2.7170241    -2.2020751
H           0.4397225    -1.4445708    -3.4514505
H          -0.9829876    -1.6613929    -2.4333991
N           1.3422475    -1.1236279    -0.4086038
H           1.5425029    -2.1121662    -0.3501902
C           1.8898776    -0.2635103     0.6407367
H           1.6265197    -0.6789381     1.6172408
H           1.3922813     0.7028660     0.5295963
O           0.4278098     0.5520129    -1.6512731
C           5.4577718    -0.4731697     1.0766771
H           6.3181696    -0.8750697     1.5951184
N           4.1773994    -0.8068925     1.4449685
C           3.3861856    -0.1433306     0.6177276
N           4.1072700     0.5997625    -0.2856867
C           3.6117689     1.5062525    -1.3153013
H           3.8475666     2.5440229    -1.0552046
H           2.5307012     1.4000722    -1.4219691
H           4.0819461     1.2686996    -2.2748741
C           5.4386094     0.3929645     0.0127489
H           6.2237513     0.8792736    -0.5481078
22
229_C7H11N3O_5-7-14-15 (90,) energy =    -512.8618230
C           0.5065394    -0.8258929    -1.2894331
C          -0.9235337    -0.7973766    -0.7732148
H          -1.3884677     0.1922361    -0.8168288
H          -0.9331669    -1.1487595     0.2638357
H          -1.5210966    -1.4997979    -1.3611395
N           1.0441862     0.3872894    -1.6045759
H           0.5431994     1.2278616    -1.3520894
C           2.4314103     0.5493106    -2.0427961
H           2.4566420     1.3170602    -2.8206227
H           2.7312306    -0.4025691    -2.4846257
O           1.1227331    -1.8822909    -1.4195090
C           4.4321233     2.2394915     0.4285541
H           4.7744074     3.1533301     0.8959066
N           3.5659693     2.2577826    -0.6366537
C           3.3635061     0.9879765    -0.9500884
N           4.0595741     0.1435731    -0.1203353
C           4.1458946    -1.3121350    -0.1822656
H           3.2338239    -1.7207678    -0.6225813
H           4.2519504    -1.7049791     0.8323373
H           5.0137893    -1.6267225    -0.7735167
C           4.7527459     0.9471450     0.7614920
H           5.3982044     0.5263691     1.5187680
22
229_C7H11N3O_5-7-14-15 (105,) energy =    -512.8614239
C           0.4730352    -0.7804232    -1.2203226
C          -0.9730006    -0.6677393    -0.7648906
H          -1.4336912     0.2962527    -1.0009275
H          -1.0170002    -0.8269620     0.3176986
H          -1.5522024    -1.4666262    -1.2364117
N           1.0254096     0.3624590    -1.7265605
H           0.5528238     1.2422210    -1.5687495
C           2.4488653     0.4364902    -2.0562751
H           2.5631596     1.1436402    -2.8829122
H           2.7463268    -0.5523344    -2.4065034
O           1.0896356    -1.8416774    -1.1532222
C           4.2317989     2.1723690     0.5484238
H           4.4683590     3.0844183     1.0802739
N           3.3550384     2.1643475    -0.5082789
C           3.3015470     0.9054957    -0.9117398
N           4.1120307     0.0949345    -0.1578199
C           4.3162172    -1.3430247    -0.3005235
H           3.3755451    -1.8197766    -0.5859179
H           4.6393119    -1.7485075     0.6610254
H           5.0866162    -1.5599867    -1.0494916
C           4.7145418     0.9082673     0.7802765
H           5.4116000     0.5131884     1.5047185
22
229_C7H11N3O_5-7-14-15 (120,) energy =    -512.8600497
C           0.4532199    -0.6920550    -1.1623808
C          -0.9989954    -0.4938647    -0.7606080
H          -1.4303505     0.4416655    -1.1292135
H          -1.0700020    -0.5112333     0.3322258
H          -1.5865862    -1.3343819    -1.1402008
N           1.0517187     0.3785172    -1.7737374
H           0.6266474     1.2904313    -1.6691047
C           2.4931521     0.3641937    -2.0082938
H           2.6970974     1.0055403    -2.8721579
H           2.7650718    -0.6576754    -2.2718540
O           1.0399772    -1.7538916    -0.9711699
C           4.0972297     2.1448213     0.6830238
H           4.2362490     3.0456199     1.2659596
N           3.1932015     2.0904669    -0.3500498
C           3.2806917     0.8608103    -0.8280234
N           4.2151022     0.1176079    -0.1546919
C           4.5291053    -1.2925171    -0.3553290
H           3.6036632    -1.8547021    -0.5048960
H           5.0315401    -1.6704598     0.5374322
H           5.1916096    -1.4343474    -1.2165883
C           4.7416909     0.9407406     0.8210899
H           5.5013553     0.5915290     1.5048679
22
229_C7H11N3O_5-7-14-15 (135,) energy =    -512.8584580
C           0.2345972    -0.7304769    -1.2717345
C          -1.1818304    -0.3652138    -0.8570922
H          -1.4553979     0.6661859    -1.0992564
H          -1.2844933    -0.5142654     0.2232614
H          -1.8793629    -1.0480128    -1.3497658
N           1.0085901     0.3189336    -1.6994646
H           0.7167299     1.2603508    -1.4691452
C           2.4387518     0.1415639    -1.9060414
H           2.7243885     0.6131500    -2.8554017
H           2.6069604    -0.9323178    -2.0004287
O           0.6425423    -1.8866079    -1.2425584
C           3.9664315     2.1147974     0.6962389
H           4.0178773     3.0236852     1.2806430
N           3.0165766     1.9422230    -0.2826720
C           3.2367701     0.7379575    -0.7793615
N           4.2946968     0.1206265    -0.1653389
C           4.8034265    -1.2199382    -0.4213718
H           3.9816463    -1.9414937    -0.4314921
H           5.4948502    -1.4913300     0.3785537
H           5.3368001    -1.2683794    -1.3768761
C           4.7683209     1.0057830     0.7859336
H           5.6081725     0.7587148     1.4184472
22
229_C7H11N3O_5-7-14-15 (150,) energy =    -512.8592635
C          -0.0300151    -0.7394728    -1.4942207
C          -1.4182770    -0.2239276    -1.1446103
H          -1.4102923     0.7229968    -0.5960825
H          -1.9343161    -0.9800782    -0.5453446
H          -1.9904692    -0.0942799    -2.0688210
N           1.0050796     0.0661428    -1.1288479
H           0.8656363     0.9681155    -0.6914344
C           2.3782865    -0.2913257    -1.4273528
H           2.5948208    -0.1468475    -2.4980667
H           2.5069934    -1.3623525    -1.2358225
O           0.1467093    -1.8127762    -2.0632832
C           4.0621080     2.1642134     0.6046337
H           4.0758646     3.1291443     1.0929047
N           2.9820326     1.7511593    -0.1404204
C           3.2921567     0.5448944    -0.5790249
N           4.5260768     0.1473413    -0.1349917
C           5.2311837    -1.0857133    -0.4491247
H           4.5257246    -1.9180647    -0.5033877
H           5.9520268    -1.2959217     0.3441051
H           5.7649877    -1.0111299    -1.4032847
C           5.0298685     1.1947429     0.6172778
H           6.0041221     1.1388534     1.0799866
22
229_C7H11N3O_5-7-14-15 (165,) energy =    -512.8601484
C          -0.0968484    -0.6704906    -1.4828239
C          -1.4665296    -0.0520955    -1.2453638
H          -1.4337967     0.8825323    -0.6770672
H          -2.0913737    -0.7737600    -0.7104669
H          -1.9421044     0.1363861    -2.2131359
N           0.9600302     0.0374496    -0.9994550
H           0.8592691     0.9390207    -0.5491821
C           2.3172225    -0.4289446    -1.1901870
H           2.5687144    -0.4545593    -2.2623340
H           2.3984566    -1.4671525    -0.8407180
O           0.0491340    -1.7394984    -2.0686190
C           4.0272786     2.1494079     0.6652628
H           4.0257075     3.1112573     1.1595239
N           2.8992044     1.6559469     0.0498091
C           3.2455026     0.4786433    -0.4360681
N           4.5502408     0.1771066    -0.1504173
C           5.2954364    -0.9983541    -0.5722099
H           4.6544456    -1.8826631    -0.5313023
H           6.1373386    -1.1507897     0.1066424
H           5.6782066    -0.8857828    -1.5929697
C           5.0601564     1.2573557     0.5501014
H           6.0843929     1.2750067     0.8922377
22
229_C7H11N3O_5-7-14-15 (180,) energy =    -512.8604522
C          -0.0199141    -0.9071138    -1.7008570
C          -1.3677117    -0.2110983    -1.5827387
H          -1.3242598     0.7418457    -1.0464949
H          -2.0660627    -0.8777815    -1.0669586
H          -1.7647646    -0.0379765    -2.5876432
N           1.0240273    -0.2758295    -1.0985891
H           0.9305291     0.6101323    -0.6165160
C           2.3576156    -0.8343336    -1.1470869
H           2.6625927    -0.9893359    -2.1932076
H           2.3672049    -1.8323545    -0.6838834
O           0.1201103    -1.9716281    -2.2962152
C           4.0816458     1.7687760     0.6638168
H           4.0751283     2.7136552     1.1896670
N           2.9299503     1.2361918     0.1287402
C           3.2937467     0.1016408    -0.4383245
N           4.6360217    -0.1259244    -0.2999988
C           5.3753725    -1.2943820    -0.7502218
H           5.2834899    -2.1247100    -0.0407006
H           6.4306307    -1.0328379    -0.8537868
H           5.0034073    -1.6201373    -1.7251797
C           5.1469452     0.9451428     0.4139307
H           6.1963830     1.0100147     0.6607588
