19
391_C7H10N2_0-4-15-16 (-165,) energy =    -382.2633470
C           1.2283072    -1.0588799     0.4774143
H           1.4786586    -1.2364776     1.5292396
H           0.7386346    -0.0741896     0.4017040
H           0.5062068    -1.8227270     0.1800855
N           2.4037790    -1.1731735    -0.3681669
C           2.2024101    -1.7381024    -1.6970142
H           1.5703627    -2.6272347    -1.6102182
H           3.1653984    -2.0167222    -2.1219451
H           1.7196276    -1.0290798    -2.3885617
C           5.7004553     1.2838037     0.1856189
H           6.5877054     1.9018254     0.2753801
C           4.7360385     1.2254953     1.1960676
H           4.8552495     1.8058105     2.1078335
C           3.6136131     0.4264638     1.0371744
H           2.8639739     0.3854667     1.8177316
C           3.4779924    -0.3250345    -0.1572363
N           4.3968990    -0.2538081    -1.1395821
C           5.4691764     0.5217443    -0.9554716
H           6.1812907     0.5360182    -1.7803934
19
391_C7H10N2_0-4-15-16 (-150,) energy =    -382.2622946
C           1.1733858    -0.9896986     0.4256282
H           1.3332899    -0.9990482     1.5074480
H           0.7022816    -0.0309967     0.1527746
H           0.4709496    -1.7952350     0.1972607
N           2.4151575    -1.2344778    -0.2957364
C           2.2478198    -1.8056606    -1.6288503
H           1.5422342    -2.6393697    -1.5616731
H           3.2064540    -2.1712126    -1.9950686
H           1.8672091    -1.0757823    -2.3608202
C           5.6643821     1.3096918     0.1812066
H           6.5339272     1.9553813     0.2475177
C           4.7765121     1.1549488     1.2511069
H           4.9426581     1.6817115     2.1876162
C           3.6761516     0.3220754     1.1205367
H           2.9931237     0.1930089     1.9514996
C           3.4808293    -0.3602609    -0.1053397
N           4.3228198    -0.1963843    -1.1415238
C           5.3828900     0.6042048    -0.9833153
H           6.0359759     0.6903787    -1.8514057
19
391_C7H10N2_0-4-15-16 (-135,) energy =    -382.2609359
C           1.1210363    -0.8887610     0.3226144
H           1.2379657    -0.5132936     1.3402032
H           0.5943668    -0.1210084    -0.2697593
H           0.4872617    -1.7805010     0.3673544
N           2.4102064    -1.2448353    -0.2612442
C           2.2790129    -1.8637497    -1.5763471
H           1.5704140    -2.6947612    -1.4942622
H           3.2457973    -2.2441719    -1.9058000
H           1.9151128    -1.1622958    -2.3437273
C           5.6485281     1.3262475     0.1804328
H           6.5092114     1.9847655     0.2375408
C           4.8536998     1.0518030     1.2997848
H           5.0911935     1.4893895     2.2662448
C           3.7673561     0.2006931     1.1777441
H           3.1682459    -0.0500808     2.0462086
C           3.4811144    -0.3618129    -0.0885645
N           4.2383801    -0.0952225    -1.1647818
C           5.2965675     0.7128476    -1.0156325
H           5.8845706     0.8836319    -1.9168802
19
391_C7H10N2_0-4-15-16 (-120,) energy =    -382.2590989
C           1.1143594    -0.7868862     0.2369123
H           1.1971717    -0.3087688     1.2152693
H           0.6758164    -0.0589855    -0.4675032
H           0.4253772    -1.6331590     0.3301620
N           2.4190378    -1.2713584    -0.2146183
C           2.3248977    -1.9397744    -1.5102016
H           1.6011653    -2.7573117    -1.4207588
H           3.2967135    -2.3521135    -1.7857773
H           2.0022740    -1.2666937    -2.3196620
C           5.6074310     1.3708262     0.1846715
H           6.4483679     2.0551664     0.2353323
C           4.9039408     0.9849537     1.3320430
H           5.1948792     1.3582392     2.3106761
C           3.8443626     0.0993696     1.2134700
H           3.3075991    -0.2508717     2.0892933
C           3.4938050    -0.3741841    -0.0694860
N           4.1579782     0.0008060    -1.1716024
C           5.1980087     0.8355068    -1.0309975
H           5.7188260     1.0959487    -1.9517468
19
391_C7H10N2_0-4-15-16 (-105,) energy =    -382.2566194
C           1.0974818    -0.6889726     0.1429825
H           1.1407447    -0.1585514     1.0981124
H           0.7749202     0.0235354    -0.6361818
H           0.3420143    -1.4780079     0.2243761
N           2.3975412    -1.2937601    -0.1619853
C           2.3482684    -2.0280372    -1.4268436
H           1.6063724    -2.8283972    -1.3289710
H           3.3233578    -2.4755946    -1.6312947
H           2.0778823    -1.3955253    -2.2860889
C           5.5678718     1.3839266     0.1835550
H           6.3966026     2.0839389     0.2239167
C           4.9630171     0.8976834     1.3475984
H           5.3183718     1.2070225     2.3272201
C           3.9163376    -0.0068208     1.2368797
H           3.4427219    -0.4376385     2.1133816
C           3.4854903    -0.3920983    -0.0470414
N           4.0497226     0.0829498    -1.1644390
C           5.0792520     0.9327492    -1.0383884
H           5.5235902     1.2776290    -1.9712943
19
391_C7H10N2_0-4-15-16 (-90,) energy =    -382.2541934
C           1.0698386    -0.5941706     0.0402745
H           1.0685018    -0.0056200     0.9628189
H           0.8492118     0.0811051    -0.8046864
H           0.2701236    -1.3398943     0.1082516
N           2.3570467    -1.2819473    -0.1121905
C           2.3648185    -2.1019208    -1.3271542
H           1.5900490    -2.8703496    -1.2279623
H           3.3338462    -2.5985709    -1.4266092
H           2.1786081    -1.5243314    -2.2450271
C           5.5327295     1.4048623     0.1720568
H           6.3551703     2.1131409     0.1988853
C           5.0436984     0.8107293     1.3382081
H           5.4823086     1.0426299     2.3053656
C           3.9972566    -0.0993788     1.2405770
H           3.5985253    -0.6098820     2.1112039
C           3.4592929    -0.3789819    -0.0257122
N           3.9129504     0.1997590    -1.1445185
C           4.9380055     1.0558029    -1.0383562
H           5.2918285     1.4911615    -1.9721570
19
391_C7H10N2_0-4-15-16 (-75,) energy =    -382.2535692
C           1.0601212    -0.4681047    -0.7229843
H           1.0151381     0.5940855    -0.9731924
H           0.3531846    -1.0056135    -1.3645400
H           0.7478931    -0.6031048     0.3282029
N           2.4161509    -0.9640004    -0.9696294
C           2.5214855    -2.3861191    -0.6701455
H           2.2584696    -2.6489949     0.3716932
H           3.5378069    -2.7360145    -0.8718568
H           1.8354379    -2.9302331    -1.3284725
C           5.4688369     1.5136203     0.4156317
H           6.2637832     2.1949377     0.7024570
C           5.2446752     0.3203840     1.0988981
H           5.8612525     0.0442184     1.9507067
C           4.2106159    -0.5173326     0.6860622
H           4.0109090    -1.4416226     1.2168298
C           3.4291988    -0.1366324    -0.4186785
N           3.6555044     1.0049308    -1.0902729
C           4.6319228     1.8075346    -0.6626882
H           4.7683906     2.7287920    -1.2283379
19
391_C7H10N2_0-4-15-16 (-60,) energy =    -382.2576804
C           1.0760212    -0.4441265    -0.8555598
H           1.1005391     0.6047933    -1.1537220
H           0.4329163    -0.9923613    -1.5523790
H           0.6406173    -0.5230564     0.1558677
N           2.4336869    -0.9887582    -0.9141146
C           2.4753995    -2.3947923    -0.5441629
H           2.1918340    -2.5890508     0.5067561
H           3.4770493    -2.7993007    -0.7152456
H           1.7742453    -2.9415881    -1.1829716
C           5.4664142     1.5298904     0.4179881
H           6.2514120     2.2264267     0.6946836
C           5.3457313     0.2810012     1.0239798
H           6.0373574    -0.0256893     1.8047943
C           4.3195639    -0.5754703     0.6327842
H           4.2022323    -1.5392204     1.1143464
C           3.4351432    -0.1555315    -0.3792958
N           3.5583023     1.0456051    -0.9741378
C           4.5319827     1.8592317    -0.5657368
H           4.5808129     2.8252387    -1.0677424
19
391_C7H10N2_0-4-15-16 (-45,) energy =    -382.2608685
C           1.0891004    -0.4316630    -0.9714843
H           1.1794455     0.6044634    -1.2954060
H           0.5221281    -0.9920868    -1.7226293
H           0.5330938    -0.4661950    -0.0191242
N           2.4267446    -1.0067241    -0.8422746
C           2.4200107    -2.3995606    -0.4312144
H           2.1370496    -2.5472094     0.6265699
H           3.4039739    -2.8487817    -0.5939393
H           1.6974949    -2.9404524    -1.0500242
C           5.4642178     1.5293445     0.4303972
H           6.2446049     2.2335987     0.6997392
C           5.4223054     0.2391643     0.9581609
H           6.1753862    -0.0933274     1.6684737
C           4.3995141    -0.6264851     0.5849802
H           4.3474889    -1.6195971     1.0144075
C           3.4298870    -0.1742366    -0.3362142
N           3.4709424     1.0715213    -0.8469747
C           4.4504791     1.8879378    -0.4582234
H           4.4299173     2.8866581    -0.8939807
19
391_C7H10N2_0-4-15-16 (-30,) energy =    -382.2627874
C           1.1128213    -0.4218357    -1.0781810
H           1.2611402     0.5871515    -1.4585700
H           0.6128557    -1.0272638    -1.8419014
H           0.4612209    -0.3759564    -0.1897525
N           2.4127499    -1.0084449    -0.7702680
C           2.3715283    -2.3909086    -0.3315913
H           2.1177312    -2.5041492     0.7367586
H           3.3326908    -2.8817714    -0.5125491
H           1.6135409    -2.9193211    -0.9166257
C           5.4655473     1.5339435     0.4401085
H           6.2436061     2.2423383     0.7047962
C           5.4882138     0.2115027     0.8872392
H           6.2940363    -0.1429639     1.5254334
C           4.4673974    -0.6589844     0.5275717
H           4.4718865    -1.6776826     0.8949772
C           3.4258519    -0.1793093    -0.3021385
N           3.3992197     1.0995446    -0.7252334
C           4.3872380     1.9160168    -0.3552058
H           4.3108010     2.9390145    -0.7232470
19
391_C7H10N2_0-4-15-16 (-15,) energy =    -382.2634610
C           1.1447681    -0.4297606    -1.1744898
H           1.3556421     0.5340546    -1.6338097
H           0.6978345    -1.0994942    -1.9170868
H           0.4164285    -0.2756351    -0.3619123
N           2.3909309    -1.0098547    -0.6925452
C           2.3336211    -2.3853395    -0.2358385
H           2.1501625    -2.4736676     0.8478878
H           3.2623693    -2.9169749    -0.4706043
H           1.5208825    -2.8944596    -0.7597095
C           5.4587753     1.5369562     0.4557181
H           6.2345046     2.2492107     0.7166551
C           5.5366219     0.1910221     0.8232190
H           6.3878149    -0.1785298     1.3899997
C           4.5183262    -0.6839579     0.4729095
H           4.5726303    -1.7234006     0.7717617
C           3.4169472    -0.1844617    -0.2668259
N           3.3333531     1.1171947    -0.6058462
C           4.3282907     1.9343895    -0.2529754
H           4.2069396     2.9742964    -0.5558969
19
391_C7H10N2_0-4-15-16 (0,) energy =    -382.2632029
C           1.1680860    -0.3941121    -1.2538693
H           1.3255616     0.6681004    -1.4308056
H           1.0301901    -0.9025741    -2.2182392
H           0.2525911    -0.5271864    -0.6605973
N           2.3249008    -0.9240437    -0.5497860
C           2.3255194    -2.3352734    -0.2190583
H           2.3796067    -2.5060712     0.8658506
H           3.1628697    -2.8701511    -0.6900211
H           1.3969436    -2.7808091    -0.5822725
C           5.4869462     1.5553176     0.4668734
H           6.2839226     2.2512888     0.7065677
C           5.5559701     0.2030738     0.8145152
H           6.4233370    -0.1877622     1.3411655
C           4.5137372    -0.6518387     0.4882984
H           4.5668211    -1.6995958     0.7575515
C           3.3904179    -0.1232917    -0.1990238
N           3.3234464     1.1808310    -0.5339773
C           4.3434272     1.9772296    -0.2055874
H           4.2336487     3.0203444    -0.5019454
19
391_C7H10N2_0-4-15-16 (15,) energy =    -382.2634610
C           1.2046947    -0.3817073    -1.3008373
H           1.1661087     0.7042268    -1.2399771
H           1.4127763    -0.6635131    -2.3457642
H           0.2328892    -0.7994141    -1.0168429
N           2.2246938    -0.8740387    -0.3848296
C           2.2683775    -2.3077828    -0.1692799
H           2.5565510    -2.5421080     0.8614280
H           2.9654093    -2.8260255    -0.8485901
H           1.2683955    -2.7169857    -0.3328776
C           5.4919938     1.5481039     0.4360719
H           6.3093991     2.2335887     0.6338357
C           5.5551982     0.1990013     0.7948886
H           6.4391069    -0.2011323     1.2857348
C           4.4883642    -0.6435675     0.5173317
H           4.5445678    -1.6920117     0.7825000
C           3.3440569    -0.1037295    -0.1221972
N           3.2901814     1.1933228    -0.4838968
C           4.3332242     1.9784097    -0.2043174
H           4.2319972     3.0172291    -0.5181525
19
391_C7H10N2_0-4-15-16 (30,) energy =    -382.2627871
C           1.2599155    -0.4170686    -1.3796565
H           1.2576723     0.6701394    -1.4318314
H           1.5468127    -0.8208032    -2.3648936
H           0.2507649    -0.7706928    -1.1423700
N           2.1799533    -0.8396476    -0.3290653
C           2.2175479    -2.2699719    -0.0879477
H           2.5753385    -2.4811135     0.9244358
H           2.8537668    -2.8184430    -0.8041972
H           1.2004687    -2.6636006    -0.1694017
C           5.4834680     1.5530094     0.4523385
H           6.3038917     2.2342562     0.6525035
C           5.5785256     0.1853783     0.7166259
H           6.4919832    -0.2362310     1.1290971
C           4.5042509    -0.6500968     0.4390394
H           4.5871923    -1.7144820     0.6205603
C           3.3240739    -0.0838402    -0.0993938
N           3.2363743     1.2343799    -0.3635392
C           4.2877395     2.0110849    -0.0968773
H           4.1610341     3.0670652    -0.3349322
19
391_C7H10N2_0-4-15-16 (45,) energy =    -382.2608683
C           1.3233497    -0.4592717    -1.4544655
H           1.3375800     0.6212375    -1.5920957
H           1.7009995    -0.9459701    -2.3697915
H           0.2901487    -0.7845138    -1.2917642
N           2.1306950    -0.7991592    -0.2842375
C           2.1646299    -2.2227045     0.0011585
H           2.5549280    -2.3995484     1.0075981
H           2.7702821    -2.8035890    -0.7175363
H           1.1411203    -2.6082255    -0.0346678
C           5.4739252     1.5564696     0.4598135
H           6.2990785     2.2316443     0.6618338
C           5.5945844     0.1764350     0.6201686
H           6.5337932    -0.2629711     0.9473247
C           4.5086963    -0.6480952     0.3448373
H           4.6073966    -1.7224881     0.4413568
C           3.2991400    -0.0579788    -0.0818000
N           3.1818774     1.2750757    -0.2354341
C           4.2432816     2.0412207     0.0165956
H           4.0964147     3.1105480    -0.1340196
19
391_C7H10N2_0-4-15-16 (60,) energy =    -382.2576804
C           1.4016604    -0.5166657    -1.5211147
H           1.3974072     0.5543837    -1.7274263
H           1.8899310    -1.0448837    -2.3585932
H           0.3655607    -0.8647455    -1.4501030
N           2.0840247    -0.7546601    -0.2479185
C           2.1130801    -2.1662325     0.1015680
H           2.5183224    -2.2960963     1.1090941
H           2.7021407    -2.7878292    -0.5978609
H           1.0858757    -2.5450560     0.0968158
C           5.4656022     1.5622354     0.4680635
H           6.2977443     2.2282072     0.6729267
C           5.6060389     0.1766282     0.5114897
H           6.5664480    -0.2763748     0.7448903
C           4.5064358    -0.6336238     0.2394939
H           4.6104727    -1.7123278     0.2471056
C           3.2734407    -0.0239387    -0.0619275
N           3.1335463     1.3144401    -0.0919109
C           4.2054989     2.0700944     0.1462750
H           4.0440798     3.1466486     0.0959347
19
391_C7H10N2_0-4-15-16 (75,) energy =    -382.2535692
C           1.4883055    -0.5911914    -1.5943045
H           1.4802364     0.4618424    -1.8840063
H           2.0717515    -1.1638071    -2.3375477
H           0.4573483    -0.9616972    -1.6054002
N           2.0357782    -0.7142645    -0.2412887
C           2.0469444    -2.1028903     0.2000562
H           2.4489136    -2.1689853     1.2149795
H           2.6278766    -2.7800377    -0.4539332
H           1.0146338    -2.4692043     0.2164858
C           5.4621029     1.5487111     0.4771160
H           6.3050569     2.1987680     0.6898624
C           5.6088623     0.1666986     0.3800852
H           6.5833354    -0.2982913     0.5073571
C           4.4915858    -0.6196594     0.1065461
H           4.5904452    -1.6952616     0.0105452
C           3.2434427     0.0070740    -0.0526870
N           3.0966341     1.3380369     0.0586523
C           4.1827639     2.0768491     0.2929000
H           4.0178314     3.1518520     0.3596745
19
391_C7H10N2_0-4-15-16 (90,) energy =    -382.2541933
C           1.5852160    -1.5531798     0.5363200
H           2.2034850    -2.4663800     0.5853801
H           1.6259682    -1.0551804     1.5098761
H           0.5470019    -1.8452311     0.3438177
N           2.0283602    -0.6312353    -0.5158842
C           1.9494324    -1.2720102    -1.8319116
H           2.5531301    -2.1887949    -1.9080885
H           2.2914421    -0.5728333    -2.5998630
H           0.9008352    -1.5198038    -2.0308981
C           5.7625583     0.9877593     0.3889344
H           6.7553990     1.3709710     0.6038773
C           4.6147625     1.6359322     0.8521263
H           4.6906487     2.5479653     1.4386302
C           3.3694394     1.1060148     0.5340873
H           2.4463936     1.5846366     0.8447520
C           3.3094861    -0.0702212    -0.2301341
N           4.4062922    -0.7045544    -0.6626231
C           5.5988803    -0.1689958    -0.3698220
H           6.4667020    -0.7027195    -0.7554805
19
391_C7H10N2_0-4-15-16 (105,) energy =    -382.2566194
C           1.5021086    -1.4385674     0.5211824
H           2.0531007    -2.3830489     0.6734249
H           1.5221509    -0.8734712     1.4570071
H           0.4588986    -1.6799789     0.2901734
N           2.0658610    -0.6367496    -0.5688820
C           2.0245087    -1.3720119    -1.8334774
H           2.5875425    -2.3173446    -1.8049498
H           2.4418984    -0.7549857    -2.6322187
H           0.9767479    -1.5908174    -2.0677324
C           5.7674510     1.0245681     0.3681243
H           6.7537817     1.4238156     0.5830302
C           4.6159601     1.5669601     0.9488002
H           4.6838129     2.4129803     1.6279769
C           3.3791443     1.0260274     0.6269989
H           2.4575705     1.4388614     1.0250501
C           3.3261321    -0.0648520    -0.2616648
N           4.4263023    -0.5983928    -0.8071921
C           5.6102172    -0.0441628    -0.5085443
H           6.4772089    -0.4941462    -0.9907708
19
391_C7H10N2_0-4-15-16 (120,) energy =    -382.2590990
C           1.4134578    -1.3361360     0.5024039
H           1.8715156    -2.3084210     0.7537966
H           1.4151808    -0.7148677     1.4005409
H           0.3717173    -1.5113404     0.2131894
N           2.1143671    -0.6651173    -0.5927319
C           2.0988627    -1.4686439    -1.8126764
H           2.6355904    -2.4240965    -1.7058770
H           2.5644618    -0.9130899    -2.6281287
H           1.0548095    -1.6767044    -2.0711518
C           5.7841040     1.0547484     0.3448101
H           6.7640414     1.4734890     0.5507466
C           4.6408997     1.4945186     1.0230242
H           4.7087266     2.2806685     1.7707602
C           3.4111530     0.9346558     0.7145641
H           2.5021067     1.2849168     1.1928705
C           3.3518157    -0.0796325    -0.2656881
N           4.4453549    -0.5106889    -0.9096979
C           5.6207415     0.0645593    -0.6169364
H           6.4773695    -0.3046429    -1.1797471
19
391_C7H10N2_0-4-15-16 (135,) energy =    -382.2609356
C           1.3191097    -1.2460259     0.4801837
H           1.7030112    -2.2089887     0.8584599
H           1.2632154    -0.5488995     1.3174084
H           0.3008434    -1.4054357     0.1105281
N           2.1435264    -0.7115135    -0.5988235
C           2.1427303    -1.5650453    -1.7823906
H           2.6533286    -2.5267128    -1.6155338
H           2.6477681    -1.0591856    -2.6051740
H           1.1021794    -1.7624807    -2.0612936
C           5.7827150     1.0897981     0.2962024
H           6.7560210     1.5327270     0.4810373
C           4.6634558     1.4214850     1.0691287
H           4.7429660     2.1478891     1.8740686
C           3.4404146     0.8328096     0.7919278
H           2.5582202     1.1115737     1.3577296
C           3.3589460    -0.1051396    -0.2642025
N           4.4321472    -0.4283140    -1.0034231
C           5.5985782     0.1717118    -0.7304168
H           6.4328427    -0.1158079    -1.3695564
19
391_C7H10N2_0-4-15-16 (150,) energy =    -382.2622946
C           1.2469664    -1.1122263     0.4507356
H           1.6735851    -1.8619865     1.1372903
H           0.9397435    -0.2426375     1.0384330
H           0.3435452    -1.5321793     0.0013514
N           2.1659411    -0.7339796    -0.6144994
C           2.1808703    -1.6377125    -1.7610676
H           2.6881096    -2.5914769    -1.5456686
H           2.7027118    -1.1668859    -2.5933561
H           1.1463456    -1.8453559    -2.0510275
C           5.7820986     1.1057504     0.2787563
H           6.7496295     1.5639836     0.4557758
C           4.6998759     1.3092976     1.1414523
H           4.8038527     1.9436943     2.0183014
C           3.4826934     0.7005601     0.8779410
H           2.6407980     0.8652999     1.5395662
C           3.3655445    -0.1170691    -0.2728380
N           4.4112700    -0.3297675    -1.0918048
C           5.5705064     0.2799179    -0.8195616
H           6.3788123     0.0800525    -1.5225633
19
391_C7H10N2_0-4-15-16 (165,) energy =    -382.2633470
C           1.2179953    -1.0225463     0.4133890
H           1.5761910    -1.6504879     1.2455393
H           0.8686454    -0.0707471     0.8288951
H           0.3560066    -1.5168047    -0.0404348
N           2.2265328    -0.8096257    -0.6099820
C           2.2213443    -1.7331060    -1.7381014
H           2.6362828    -2.7200866    -1.4779237
H           2.8221948    -1.3204694    -2.5469969
H           1.1904072    -1.8662494    -2.0801161
C           5.7872792     1.1382362     0.2496634
H           6.7395274     1.6314825     0.4144883
C           4.7406599     1.2254021     1.1724657
H           4.8589832     1.7984162     2.0889449
C           3.5418252     0.5737198     0.9242199
H           2.7328424     0.6371341     1.6414715
C           3.4065033    -0.1653917    -0.2779578
N           4.4212265    -0.2661542    -1.1580697
C           5.5623844     0.3761723    -0.8926486
H           6.3456349     0.2637504    -1.6420961
19
391_C7H10N2_0-4-15-16 (180,) energy =    -382.2633370
C           1.1980956    -0.9704416     0.3733060
H           1.4284887    -1.6004009     1.2484297
H           0.9250433     0.0280863     0.7328763
H           0.3229048    -1.3947095    -0.1255663
N           2.2867845    -0.9003708    -0.5799979
C           2.2446690    -1.8240919    -1.7032505
H           2.3529290    -2.8703485    -1.3762278
H           3.0580067    -1.5841835    -2.3854080
H           1.2877080    -1.7260519    -2.2295819
C           5.7628858     1.2195400     0.2100713
H           6.6887991     1.7664023     0.3539659
C           4.7646395     1.1850148     1.1874720
H           4.8971844     1.7094618     2.1307452
C           3.5980336     0.4684111     0.9630144
H           2.8342917     0.4238259     1.7296295
C           3.4433059    -0.2096304    -0.2728454
N           4.4124077    -0.1883531    -1.2094446
C           5.5255446     0.5054075    -0.9612918
H           6.2732532     0.4857396    -1.7540528
