19
298_C8H9FO_0-4-11-9 (-165,) energy =    -485.3066288
C           1.6910139    -1.6838873    -0.3102245
H           1.8958651    -1.8140326    -1.3771096
H           0.6131416    -1.7573354    -0.1476836
H           2.1884989    -2.4769210     0.2607055
O           2.0477785    -0.3938883     0.1606001
C           5.8265175     1.2568231     0.8089223
H           6.7901490     1.7168214     1.0050766
C           4.6626089     1.8026886     1.3500738
H           4.6692370     2.6898918     1.9747210
C           3.4565710     1.1829205     1.0803609
F           2.3251555     1.6977840     1.6030527
C           3.3443904     0.0201418     0.2930095
C           4.5169761    -0.5124417    -0.2852127
C           4.5577179    -1.6857663    -1.2478741
H           3.9777991    -1.4918511    -2.1571438
H           4.1907702    -2.6206587    -0.8141078
H           5.5912983    -1.8611290    -1.5598906
C           5.7374166     0.1239004     0.0080382
H           6.6423809    -0.2888234    -0.4302333
19
298_C8H9FO_0-4-11-9 (-150,) energy =    -485.3082613
C           1.7102618    -1.6977906    -0.2345572
H           1.9103641    -2.0270833    -1.2587011
H           0.6359147    -1.7670940    -0.0463747
H           2.2373855    -2.3520703     0.4705538
O           2.0442356    -0.3313903    -0.0269331
C           5.8216848     1.2021709     0.8689004
H           6.7874160     1.6290955     1.1218622
C           4.6497082     1.7802665     1.3567441
H           4.6546996     2.6584731     1.9940208
C           3.4378627     1.2042988     1.0175591
F           2.2984202     1.7481977     1.4898179
C           3.3353545     0.0546904     0.2138637
C           4.5163817    -0.4989567    -0.3223833
C           4.5341603    -1.6345317    -1.3259015
H           3.8946742    -1.4195307    -2.1894081
H           4.2093623    -2.5922314    -0.9054531
H           5.5516368    -1.7752343    -1.7020936
C           5.7414972     0.0857789     0.0423866
H           6.6536909    -0.3442409    -0.3632674
19
298_C8H9FO_0-4-11-9 (-135,) energy =    -485.3100251
C           1.7229552    -1.6879533    -0.1592472
H           1.9736697    -2.2157056    -1.0849964
H           0.6390968    -1.7161775    -0.0199592
H           2.2058130    -2.1906108     0.6878170
O           2.0743711    -0.3076046    -0.2117935
C           5.8160061     1.1612430     0.9111197
H           6.7761146     1.5696602     1.2121007
C           4.6349052     1.7432443     1.3716054
H           4.6304751     2.6029105     2.0337055
C           3.4266613     1.1953441     0.9714443
F           2.2779719     1.7423460     1.4153775
C           3.3460726     0.0733731     0.1317064
C           4.5374781    -0.4841142    -0.3714425
C           4.5398073    -1.5982807    -1.3942814
H           3.8326525    -1.3936807    -2.2058653
H           4.2749622    -2.5720341    -0.9653257
H           5.5352871    -1.6982353    -1.8368426
C           5.7572503     0.0679035     0.0505280
H           6.6787508    -0.3630816    -0.3326414
19
298_C8H9FO_0-4-11-9 (-120,) energy =    -485.3117276
C           1.6912919    -1.6556810    -0.0406782
H           2.2460153    -2.4095086    -0.6091227
H           0.6348357    -1.7117798    -0.3130069
H           1.7990346    -1.8625051     1.0318279
O           2.1027982    -0.3248220    -0.3497667
C           5.8076938     1.1201269     0.9168360
H           6.7620765     1.5220819     1.2440837
C           4.6199537     1.6818978     1.3855085
H           4.6072289     2.5180294     2.0769631
C           3.4172214     1.1470278     0.9486920
F           2.2609526     1.6757347     1.3949515
C           3.3556289     0.0572953     0.0693526
C           4.5533294    -0.4798224    -0.4372627
C           4.5478797    -1.5676546    -1.4854208
H           3.7175095    -1.4346862    -2.1864208
H           4.4544217    -2.5698133    -1.0470066
H           5.4815694    -1.5509484    -2.0559582
C           5.7670538     0.0584637     0.0151785
H           6.6954242    -0.3539053    -0.3721359
19
298_C8H9FO_0-4-11-9 (-105,) energy =    -485.3134046
C           1.6772904    -1.5855454     0.0276654
H           2.3414239    -2.4237128    -0.2162502
H           0.7048129    -1.7489677    -0.4423407
H           1.5498496    -1.5334330     1.1165864
O           2.1664504    -0.3482599    -0.4901830
C           5.8085440     1.0866731     0.9511076
H           6.7518421     1.4827182     1.3159098
C           4.6062475     1.6132349     1.4246556
H           4.5734905     2.4148813     2.1551791
C           3.4175918     1.0894253     0.9367528
F           2.2441229     1.5793518     1.3843423
C           3.3903846     0.0504295    -0.0004779
C           4.6011331    -0.4640195    -0.4949259
C           4.6039719    -1.5363582    -1.5577511
H           3.7485658    -1.4219985    -2.2302548
H           4.5494386    -2.5436538    -1.1237426
H           5.5220708    -1.4898422    -2.1516424
C           5.8004387     0.0649068     0.0024746
H           6.7417731    -0.3240805    -0.3776115
19
298_C8H9FO_0-4-11-9 (-90,) energy =    -485.3146010
C           1.6275553    -1.4043937     0.1430022
H           2.2759289    -2.2888210     0.1924504
H           0.7132827    -1.6557824    -0.3994264
H           1.3703938    -1.0881042     1.1616425
O           2.2453561    -0.3404786    -0.5830254
C           5.8488904     1.1278158     0.9139614
H           6.7858696     1.5284684     1.2898079
C           4.6397580     1.6360129     1.3899803
H           4.5955446     2.4272046     2.1312692
C           3.4591446     1.1079003     0.8867142
F           2.2753034     1.5768554     1.3345130
C           3.4487128     0.0835595    -0.0646277
C           4.6651454    -0.4204328    -0.5521567
C           4.6663539    -1.4946684    -1.6125607
H           3.9660988    -1.2519750    -2.4181524
H           4.3606190    -2.4677012    -1.2070040
H           5.6653388    -1.6160213    -2.0417685
C           5.8570616     0.1154453    -0.0461207
H           6.8042839    -0.2641393    -0.4205646
19
298_C8H9FO_0-4-11-9 (-75,) energy =    -485.3157105
C           1.6112011    -1.5102309     0.1674910
H           2.2420170    -2.3634778     0.4492863
H           0.7625608    -1.8654001    -0.4213961
H           1.2442524    -1.0145863     1.0730257
O           2.3233343    -0.5959482    -0.6706496
C           5.7980705     1.0960829     0.8957586
H           6.7040680     1.5484162     1.2883897
C           4.5560563     1.4926957     1.3928452
H           4.4550350     2.2482142     2.1651744
C           3.4160193     0.9016772     0.8672467
F           2.2005734     1.2730013     1.3299550
C           3.4764917    -0.0826091    -0.1239769
C           4.7259149    -0.4764010    -0.6286049
C           4.7966649    -1.5111965    -1.7248110
H           4.2376537    -1.1886989    -2.6101735
H           4.3599290    -2.4659326    -1.4087929
H           5.8341937    -1.6946801    -2.0192872
C           5.8769584     0.1267732    -0.1048910
H           6.8482683    -0.1712383    -0.4910733
19
298_C8H9FO_0-4-11-9 (-60,) energy =    -485.3162075
C           1.4957547    -1.5252954     0.3042313
H           2.0840486    -2.2909054     0.8264042
H           0.7435857    -2.0113484    -0.3209782
H           1.0028787    -0.8822647     1.0383659
O           2.3196137    -0.7710526    -0.5904964
C           5.7545450     1.0603664     0.9174582
H           6.6544023     1.5393590     1.2918919
C           4.5177477     1.3665285     1.4839366
H           4.4120115     2.0814545     2.2934400
C           3.3835514     0.7450433     0.9805019
F           2.1762203     1.0595382     1.5097507
C           3.4436112    -0.1919191    -0.0570139
C           4.6909839    -0.4945733    -0.6311563
C           4.7666579    -1.4814961    -1.7699489
H           4.1959154    -1.1319306    -2.6379163
H           4.3431180    -2.4523969    -1.4888293
H           5.8041152    -1.6364023    -2.0808141
C           5.8324308     0.1444138    -0.1323712
H           6.7979576    -0.0881533    -0.5739746
19
298_C8H9FO_0-4-11-9 (-45,) energy =    -485.3164181
C           1.4157494    -1.4678315     0.3487489
H           1.9088964    -1.9857159     1.1802882
H           0.8514781    -2.1910953    -0.2446131
H           0.7371292    -0.7096261     0.7472445
O           2.3775031    -0.9007595    -0.5456276
C           5.7612142     1.0607185     0.9149535
H           6.6514248     1.5676364     1.2750374
C           4.5315874     1.2980174     1.5260111
H           4.4199312     1.9874240     2.3566547
C           3.4063264     0.6440368     1.0427599
F           2.2070281     0.9039687     1.6222161
C           3.4694816    -0.2651720    -0.0195047
C           4.7123323    -0.4977088    -0.6395007
C           4.7925114    -1.4575878    -1.8002992
H           4.1851639    -1.1138987    -2.6457364
H           4.4114788    -2.4478106    -1.5257878
H           5.8259458    -1.5671600    -2.1423295
C           5.8412158     0.1756888    -0.1614212
H           6.8002312    -0.0071238    -0.6392351
19
298_C8H9FO_0-4-11-9 (-30,) energy =    -485.3165244
C           1.3536207    -1.4379682     0.3163402
H           1.7102901    -1.8430556     1.2701972
H           0.8267015    -2.2194584    -0.2359275
H           0.6752076    -0.6032995     0.5095519
O           2.4436540    -1.0525569    -0.5232296
C           5.7514800     1.0754342     0.8836704
H           6.6264824     1.6191389     1.2267054
C           4.5268826     1.2515297     1.5223933
H           4.4023866     1.9290111     2.3610230
C           3.4181527     0.5513711     1.0641083
F           2.2274523     0.7642471     1.6837315
C           3.4934115    -0.3461296    -0.0082388
C           4.7343927    -0.5175285    -0.6562208
C           4.8297604    -1.4685925    -1.8229160
H           4.1841284    -1.1523144    -2.6507248
H           4.5034310    -2.4765978    -1.5423323
H           5.8579117    -1.5270466    -2.1922074
C           5.8430107     0.2005397    -0.2003837
H           6.7966808     0.0617004    -0.7029799
19
298_C8H9FO_0-4-11-9 (-15,) energy =    -485.3164176
C           1.3219776    -1.3841964     0.2821076
H           1.5350250    -1.7351078     1.2972417
H           0.7808534    -2.1590146    -0.2653413
H           0.7131286    -0.4775321     0.3330915
O           2.5219589    -1.1757717    -0.4625581
C           5.7654460     1.1136330     0.8424756
H           6.6269065     1.6954297     1.1557616
C           4.5541834     1.2406552     1.5156001
H           4.4265072     1.9145561     2.3566935
C           3.4608880     0.4909620     1.0988647
F           2.2893511     0.6587658     1.7697714
C           3.5373107    -0.4045576     0.0242042
C           4.7674973    -0.5280510    -0.6577737
C           4.8670581    -1.4815504    -1.8220501
H           4.1726952    -1.2062988    -2.6247254
H           4.6062121    -2.5034400    -1.5232159
H           5.8815718    -1.4882504    -2.2313749
C           5.8591992     0.2349157    -0.2384260
H           6.8015691     0.1309073    -0.7698988
19
298_C8H9FO_0-4-11-9 (0,) energy =    -485.3163475
C           1.2960772    -1.3197228     0.2342945
H           1.3591316    -1.6324848     1.2808645
H           0.7341553    -2.0624269    -0.3360165
H           0.7890470    -0.3520421     0.1753954
O           2.5820693    -1.2803545    -0.3830906
C           5.7620140     1.1607007     0.7988154
H           6.6078885     1.7807554     1.0793239
C           4.5689438     1.2433756     1.5096483
H           4.4412297     1.9155083     2.3521866
C           3.4954441     0.4427995     1.1380373
F           2.3486370     0.5575092     1.8617126
C           3.5708991    -0.4531628     0.0634191
C           4.7843777    -0.5338250    -0.6551096
C           4.8856434    -1.4923182    -1.8151211
H           4.1423318    -1.2634050    -2.5878630
H           4.6951835    -2.5242455    -1.4977568
H           5.8803318    -1.4477827    -2.2683625
C           5.8577939     0.2738496    -0.2753212
H           6.7860921     0.2025594    -0.8361488
19
298_C8H9FO_0-4-11-9 (15,) energy =    -485.3164177
C           1.2672279    -1.2691552     0.1660825
H           1.1768648    -1.5304072     1.2240136
H           0.6996142    -1.9811372    -0.4370410
H           0.8734273    -0.2599987     0.0072836
O           2.6133209    -1.3851444    -0.2950878
C           5.7223892     1.2001808     0.7598780
H           6.5492943     1.8580430     1.0091949
C           4.5493162     1.2387654     1.5073996
H           4.4215855     1.9089824     2.3514220
C           3.5021686     0.3872420     1.1767878
F           2.3803040     0.4406326     1.9445057
C           3.5805100    -0.5077804     0.1017998
C           4.7742011    -0.5462947    -0.6516192
C           4.8812467    -1.5087697    -1.8078039
H           4.0935444    -1.3298625    -2.5489107
H           4.7646257    -2.5470778    -1.4756364
H           5.8517373    -1.4122849    -2.3034948
C           5.8249512     0.3067064    -0.3080263
H           6.7385866     0.2697201    -0.8956456
19
298_C8H9FO_0-4-11-9 (30,) energy =    -485.3165243
C           1.2678093    -1.2143301     0.1130550
H           1.0346667    -1.3811177     1.1676711
H           0.7083875    -1.9219348    -0.5031552
H           0.9883490    -0.1910452    -0.1621201
O           2.6441082    -1.4709791    -0.1727746
C           5.6945308     1.2355491     0.7314253
H           6.5043507     1.9259333     0.9468838
C           4.5485473     1.2366979     1.5222167
H           4.4284643     1.9061170     2.3679710
C           3.5269250     0.3407449     1.2341020
F           2.4321835     0.3394307     2.0394070
C           3.5993645    -0.5520563     0.1576832
C           4.7644024    -0.5546876    -0.6373448
C           4.8662376    -1.5208275    -1.7909817
H           4.0405747    -1.3838108    -2.4988038
H           4.8118729    -2.5606226    -1.4478438
H           5.8094758    -1.3848134    -2.3283114
C           5.7950566     0.3386452    -0.3336751
H           6.6888908     0.3329711    -0.9521186
19
298_C8H9FO_0-4-11-9 (45,) energy =    -485.3164178
C           1.2702468    -1.1330300     0.0579464
H           0.9146986    -1.1062992     1.0909517
H           0.7247401    -1.8984080    -0.4990701
H           1.1021965    -0.1547872    -0.4085680
O           2.6485527    -1.5082595    -0.0181363
C           5.6663064     1.2795220     0.7231810
H           6.4652376     1.9921177     0.9049214
C           4.5509049     1.2600330     1.5581262
H           4.4469458     1.9318448     2.4040331
C           3.5455595     0.3351207     1.3105848
F           2.4769445     0.2997727     2.1463131
C           3.6022497    -0.5600528     0.2360879
C           4.7338765    -0.5424568    -0.6017621
C           4.8194418    -1.5162254    -1.7505779
H           3.9569893    -1.4198547    -2.4198928
H           4.8236500    -2.5535058    -1.3958821
H           5.7300830    -1.3492904    -2.3335330
C           5.7530233     0.3789423    -0.3396998
H           6.6246427     0.3930606    -0.9889195
19
298_C8H9FO_0-4-11-9 (60,) energy =    -485.3162079
C           1.3249482    -1.1343854    -0.0355039
H           0.9327678    -0.7208794     0.8975492
H           0.7497761    -2.0199935    -0.3144088
H           1.2427973    -0.3823720    -0.8308981
O           2.6780166    -1.5770606     0.1102247
C           5.6591399     1.2790395     0.7262649
H           6.4473319     2.0095219     0.8828205
C           4.5868029     1.2154034     1.6152479
H           4.5073798     1.8706187     2.4766218
C           3.5969117     0.2677586     1.3958029
F           2.5661404     0.1832108     2.2716163
C           3.6287431    -0.6064254     0.3036216
C           4.7141603    -0.5444488    -0.5880591
C           4.7751488    -1.5002306    -1.7539875
H           3.8846428    -1.4182336    -2.3874920
H           4.8206821    -2.5410110    -1.4133515
H           5.6558434    -1.3024061    -2.3722108
C           5.7197602     0.4017945    -0.3572178
H           6.5597719     0.4520982    -1.0451120
19
298_C8H9FO_0-4-11-9 (75,) energy =    -485.3157105
C           1.4759332    -1.2056069    -0.1044707
H           1.0500052    -0.5769308     0.6852457
H           0.8686428    -2.1063016    -0.2187901
H           1.4827355    -0.6479997    -1.0502045
O           2.7899755    -1.6519514     0.2413335
C           5.7163899     1.2775225     0.7360728
H           6.4906811     2.0270344     0.8713563
C           4.7065436     1.1468181     1.6900585
H           4.6630891     1.7699404     2.5773792
C           3.7347499     0.1762108     1.4930744
F           2.7483349     0.0276609     2.4064293
C           3.7287067    -0.6545975     0.3684894
C           4.7487225    -0.5272910    -0.5876625
C           4.7696582    -1.4457107    -1.7849506
H           3.8621546    -1.3409442    -2.3911918
H           4.8213728    -2.4959793    -1.4772489
H           5.6307253    -1.2304649    -2.4245516
C           5.7355241     0.4463395    -0.3845935
H           6.5297589     0.5505568    -1.1192559
19
298_C8H9FO_0-4-11-9 (90,) energy =    -485.3146010
C           1.5473987    -1.2232952    -0.0211933
H           1.0828659    -0.4406445     0.5915657
H           0.9167414    -2.1151571    -0.0079164
H           1.6458133    -0.8628170    -1.0533866
O           2.8095997    -1.6160949     0.5203142
C           5.7646778     1.3161650     0.7484174
H           6.5469645     2.0661072     0.8214409
C           4.8402084     1.1787500     1.7844313
H           4.8705618     1.7993604     2.6740189
C           3.8557509     0.2078658     1.6648947
F           2.9448282     0.0577208     2.6495709
C           3.7590840    -0.6187661     0.5416116
C           4.6958245    -0.4884382    -0.4961437
C           4.6290414    -1.4057740    -1.6930067
H           3.7837423    -1.1594455    -2.3483890
H           4.4975029    -2.4472175    -1.3826308
H           5.5420592    -1.3313957    -2.2911560
C           5.6917029     0.4898602    -0.3734539
H           6.4248794     0.5956878    -1.1689234
19
298_C8H9FO_0-4-11-9 (105,) energy =    -485.3134045
C           1.5508402    -1.2988168    -0.2283375
H           1.0430167    -0.3877343     0.1133466
H           0.8846696    -2.1545246    -0.0967979
H           1.7984645    -1.1943439    -1.2917619
O           2.7065848    -1.5688356     0.5651760
C           5.6987989     1.3317726     0.7358867
H           6.4877807     2.0753481     0.8013854
C           4.7891810     1.1951606     1.7851741
H           4.8368210     1.8106235     2.6775552
C           3.7944109     0.2341215     1.6757465
F           2.9014244     0.0882811     2.6750816
C           3.6723485    -0.5871012     0.5491173
C           4.6026559    -0.4652262    -0.4971707
C           4.5383889    -1.3842976    -1.6932594
H           3.8668172    -0.9978013    -2.4714570
H           4.1721112    -2.3743929    -1.4058095
H           5.5276384    -1.4976622    -2.1474530
C           5.6047898     0.5088575    -0.3857818
H           6.3314152     0.6072939    -1.1884410
19
298_C8H9FO_0-4-11-9 (120,) energy =    -485.3117276
C           1.5722107    -1.3554170    -0.3096676
H           1.1399365    -0.3466215    -0.3002480
H           0.8106929    -2.0754675    -0.0013721
H           1.8992300    -1.5964048    -1.3265847
O           2.6260772    -1.4704033     0.6454530
C           5.7267037     1.3210857     0.7566881
H           6.5381252     2.0408659     0.8116397
C           4.8475575     1.1817309     1.8307608
H           4.9397938     1.7726255     2.7361562
C           3.8216782     0.2538051     1.7304302
F           2.9618086     0.1100357     2.7578052
C           3.6304558    -0.5329772     0.5863806
C           4.5437867    -0.4231908    -0.4782141
C           4.4651655    -1.3344350    -1.6805516
H           3.7627432    -0.9653681    -2.4392682
H           4.1422273    -2.3399309    -1.3920479
H           5.4451596    -1.4160444    -2.1607194
C           5.5736493     0.5235725    -0.3757697
H           6.2813846     0.6131221    -1.1961453
19
298_C8H9FO_0-4-11-9 (135,) energy =    -485.3100251
C           1.6142547    -1.4417633    -0.3796849
H           1.4385704    -0.4555946    -0.8268335
H           0.6798663    -1.8086918     0.0530136
H           1.9410445    -2.1395468    -1.1573090
O           2.5409056    -1.3635513     0.7005044
C           5.7546217     1.2976936     0.7905783
H           6.5884713     1.9912160     0.8446591
C           4.8920061     1.1575040     1.8777869
H           5.0164145     1.7238601     2.7949487
C           3.8357415     0.2665270     1.7746454
F           2.9897401     0.1271905     2.8141855
C           3.5946971    -0.4900994     0.6171095
C           4.4934761    -0.3838491    -0.4619162
C           4.3944901    -1.2661604    -1.6863757
H           3.5726253    -0.9799082    -2.3534147
H           4.2418919    -2.3150600    -1.4086684
H           5.3198402    -1.2062694    -2.2668679
C           5.5522213     0.5316866    -0.3547283
H           6.2451156     0.6191968    -1.1877766
19
298_C8H9FO_0-4-11-9 (150,) energy =    -485.3082613
C           1.6293615    -1.5143522    -0.4004247
H           1.4764186    -0.6307619    -1.0320891
H           0.6646941    -1.8324187     0.0029210
H           2.0443732    -2.3276675    -1.0034413
O           2.4330977    -1.2119542     0.7328269
C           5.7943493     1.2616324     0.8152945
H           6.6600153     1.9144739     0.8728400
C           4.9264804     1.1500666     1.9016062
H           5.0766139     1.6981173     2.8259943
C           3.8305675     0.3124724     1.7886223
F           2.9793789     0.2026355     2.8281403
C           3.5452483    -0.4213012     0.6232024
C           4.4505205    -0.3493566    -0.4557866
C           4.3465814    -1.2069128    -1.7010533
H           3.4873975    -0.9558535    -2.3321092
H           4.2733034    -2.2716251    -1.4523973
H           5.2448813    -1.0768913    -2.3115677
C           5.5509187     0.5168305    -0.3344435
H           6.2456762     0.5800558    -1.1680406
19
298_C8H9FO_0-4-11-9 (165,) energy =    -485.3066288
C           1.6501196    -1.5908369    -0.3975047
H           1.4636010    -0.8367625    -1.1714151
H           0.6908753    -1.9332407    -0.0022419
H           2.1759524    -2.4450388    -0.8345225
O           2.3336427    -1.0417329     0.7179931
C           5.8466243     1.2090317     0.8485842
H           6.7479987     1.8094921     0.9236322
C           4.9495843     1.1494167     1.9150091
H           5.1100879     1.6867367     2.8439241
C           3.8110738     0.3774357     1.7763598
F           2.9332626     0.3168917     2.7982081
C           3.5056061    -0.3458383     0.6066911
C           4.4302243    -0.3156407    -0.4596634
C           4.3114291    -1.1254378    -1.7384064
H           3.4236125    -0.8822022    -2.3295457
H           4.2942889    -2.2033655    -1.5422979
H           5.1815909    -0.9300778    -2.3716898
C           5.5784674     0.4834294    -0.3066047
H           6.2881426     0.5138877    -1.1292935
19
298_C8H9FO_0-4-11-9 (180,) energy =    -485.3058905
C           1.6953996    -1.6885800    -0.3612207
H           1.5399929    -1.1227900    -1.2857043
H           0.7231291    -2.0038264     0.0244371
H           2.2962056    -2.5802238    -0.5695631
O           2.2563735    -0.8921708     0.6689498
C           5.8914415     1.1478978     0.8874046
H           6.8246913     1.6932715     0.9883237
C           4.9575367     1.1511706     1.9233259
H           5.1180394     1.6861125     2.8536034
C           3.7827454     0.4434384     1.7531331
F           2.8720441     0.4392697     2.7478475
C           3.4777341    -0.2838045     0.5847120
C           4.4220252    -0.2883856    -0.4652806
C           4.2621128    -1.0119583    -1.7916659
H           3.4122880    -0.6457731    -2.3766357
H           4.1454700    -2.0939735    -1.6769774
H           5.1579800    -0.8514116    -2.3982153
C           5.6128432     0.4378615    -0.2744921
H           6.3410419     0.4354412    -1.0813569
