19
434_C9H8N2_4-6-15-16 (-165,) energy =    -457.2536850
C           5.8496962     1.0852421    -0.0161097
H           6.6914315     1.7621058     0.0980763
C           5.9841075    -0.2653379     0.3068661
H           6.9339284    -0.6493650     0.6686190
C           4.9088885    -1.1405105     0.1574537
H           5.0386727    -2.1933295     0.3847975
C           3.6807214    -0.6575137    -0.3087678
C           3.5385414     0.6957418    -0.6372812
H           2.5820773     1.0488596    -1.0021949
C           4.6242654     1.5561539    -0.4924935
H           4.5066557     2.6051992    -0.7500380
C           1.1488907    -3.2141529    -0.3075904
H           0.6805480    -4.1562948    -0.0626235
C           2.3910502    -2.7731140     0.0915891
H           3.1354571    -3.2316827     0.7237446
N           2.5677439    -1.5285404    -0.4484778
N           1.4865021    -1.1393473    -1.1756220
C           0.6353171    -2.1555473    -1.0919537
H          -0.3183256    -2.0926661    -1.5999890
19
434_C9H8N2_4-6-15-16 (-150,) energy =    -457.2535749
C           5.8504041     1.0703141    -0.0228793
H           6.6972616     1.7413930     0.0882795
C           6.0022041    -0.2967118     0.2125289
H           6.9705374    -0.6978258     0.4987192
C           4.9204320    -1.1639698     0.0614393
H           5.0522630    -2.2314546     0.2072757
C           3.6706982    -0.6531080    -0.3044728
C           3.5114862     0.7148910    -0.5494752
H           2.5378917     1.0848281    -0.8484598
C           4.6041050     1.5679291    -0.4111453
H           4.4771382     2.6300207    -0.6019181
C           1.1216058    -3.1865227    -0.2587321
H           0.6211933    -4.0941202     0.0460320
C           2.3179986    -2.6941574     0.2157543
H           2.9912158    -3.0603386     0.9762387
N           2.5563968    -1.5211952    -0.4449606
N           1.5657042    -1.2269705    -1.3282377
C           0.7022379    -2.2312883    -1.2132908
H          -0.1906082    -2.2360466    -1.8251376
19
434_C9H8N2_4-6-15-16 (-135,) energy =    -457.2525294
C           5.8574641     1.0586166    -0.0394790
H           6.7119278     1.7220935     0.0593568
C           6.0183147    -0.3187969     0.1171199
H           6.9999779    -0.7339575     0.3277765
C           4.9257591    -1.1753496    -0.0209693
H           5.0519437    -2.2505278     0.0620896
C           3.6611619    -0.6418971    -0.2858141
C           3.4931780     0.7355480    -0.4559123
H           2.5067053     1.1218534    -0.6866530
C           4.5949328     1.5796275    -0.3346362
H           4.4645951     2.6503367    -0.4650547
C           1.0995833    -3.1605084    -0.2221570
H           0.5685819    -4.0357210     0.1230126
C           2.2388378    -2.6062312     0.3218216
H           2.8331336    -2.8792943     1.1815324
N           2.5397995    -1.5033505    -0.4258892
N           1.6560258    -1.3197700    -1.4429035
C           0.7854048    -2.3173748    -1.3126340
H          -0.0357117    -2.3991970    -2.0131650
19
434_C9H8N2_4-6-15-16 (-120,) energy =    -457.2507120
C           5.8626335     1.0494937    -0.0556727
H           6.7221317     1.7075941     0.0362307
C           6.0309744    -0.3343270     0.0156529
H           7.0221006    -0.7576330     0.1528297
C           4.9309180    -1.1829779    -0.1134350
H           5.0530962    -2.2616825    -0.0912342
C           3.6561524    -0.6364411    -0.2813059
C           3.4813941     0.7469477    -0.3684639
H           2.4848935     1.1446757    -0.5282973
C           4.5883292     1.5863557    -0.2559898
H           4.4543497     2.6625390    -0.3206553
C           1.0713489    -3.1314700    -0.1897254
H           0.5035006    -3.9658152     0.1957477
C           2.1477718    -2.5071941     0.4053556
H           2.6533633    -2.6766523     1.3451290
N           2.5279306    -1.4939470    -0.4268420
N           1.7648894    -1.4417060    -1.5515894
C           0.8803379    -2.4245879    -1.3987716
H           0.1387488    -2.5944285    -2.1688695
19
434_C9H8N2_4-6-15-16 (-105,) energy =    -457.2488279
C           5.8679985     1.0447043    -0.0516426
H           6.7266168     1.7031923     0.0465265
C           6.0507641    -0.3388962    -0.0903972
H           7.0505033    -0.7597588    -0.0298160
C           4.9508687    -1.1870309    -0.2241868
H           5.0776888    -2.2640537    -0.2773868
C           3.6668593    -0.6426434    -0.2953380
C           3.4776663     0.7405263    -0.2699896
H           2.4718818     1.1398635    -0.3512199
C           4.5824094     1.5826226    -0.1473061
H           4.4385963     2.6592049    -0.1249553
C           1.0157807    -3.0701335    -0.1459972
H           0.3864695    -3.8341114     0.2870917
C           2.0397240    -2.3811407     0.4711980
H           2.4405189    -2.4245722     1.4737996
N           2.5372235    -1.5044954    -0.4483684
N           1.9030347    -1.6029006    -1.6472991
C           0.9788538    -2.5425084    -1.4563342
H           0.3198344    -2.8104270    -2.2723586
19
434_C9H8N2_4-6-15-16 (-90,) energy =    -457.2479781
C           5.8681392     1.0480658    -0.0370307
H           6.7131030     1.7208883     0.0808338
C           6.0853667    -0.3200705    -0.2136985
H           7.0977121    -0.7136311    -0.2352043
C           5.0026536    -1.1867116    -0.3657521
H           5.1519266    -2.2520395    -0.5114090
C           3.7037597    -0.6759758    -0.3385650
C           3.4793891     0.6910522    -0.1664193
H           2.4607161     1.0661054    -0.1591832
C           4.5662160     1.5526399    -0.0148924
H           4.3955045     2.6172131     0.1183558
C           0.9258828    -2.9556584    -0.1039845
H           0.1996533    -3.5963395     0.3750216
C           1.9177635    -2.2139533     0.5052877
H           2.1991027    -2.0933912     1.5416298
N           2.5903154    -1.5634792    -0.4870309
N           2.0869822    -1.8421327    -1.7184674
C           1.0816006    -2.6833795    -1.4814093
H           0.5035147    -3.0650712    -2.3133396
19
434_C9H8N2_4-6-15-16 (-75,) energy =    -457.2488369
C           5.8618241     1.0422672    -0.0373198
H           6.6944319     1.7288037     0.0887228
C           6.1029778    -0.2987443    -0.3454810
H           7.1220917    -0.6584223    -0.4562793
C           5.0373083    -1.1844920    -0.5011688
H           5.2047680    -2.2306555    -0.7362744
C           3.7284232    -0.7166752    -0.3664201
C           3.4795830     0.6218030    -0.0559687
H           2.4541685     0.9648720     0.0427636
C           4.5511541     1.5002460     0.1094150
H           4.3602597     2.5431030     0.3466615
C           0.8368285    -2.8401131    -0.0998239
H           0.0170924    -3.3524838     0.3826717
C           1.7938514    -2.0453720     0.4972560
H           1.9573865    -1.7582174     1.5260509
N           2.6370682    -1.6304996    -0.4922312
N           2.2631385    -2.0955847    -1.7140212
C           1.1816830    -2.8332795    -1.4700699
H           0.6848212    -3.3322784    -2.2922955
19
434_C9H8N2_4-6-15-16 (-60,) energy =    -457.2507346
C           5.8677748     1.0368124    -0.0352863
H           6.7010943     1.7225431     0.0896524
C           6.0988419    -0.2781378    -0.4477556
H           7.1124796    -0.6191324    -0.6390745
C           5.0342890    -1.1645691    -0.5997635
H           5.1946382    -2.1912596    -0.9113732
C           3.7303789    -0.7207051    -0.3633676
C           3.4904632     0.5920359     0.0495399
H           2.4704265     0.9221481     0.2215049
C           4.5642401     1.4677321     0.2158285
H           4.3782202     2.4904380     0.5317535
C           0.7874373    -2.7705255    -0.1313876
H          -0.0912349    -3.2073106     0.3206927
C           1.6863352    -1.9039416     0.4547107
H           1.7407285    -1.4816333     1.4476808
N           2.6470193    -1.6383047    -0.4785264
N           2.4034521    -2.2704276    -1.6578645
C           1.2867146    -2.9611023    -1.4399531
H           0.8757158    -3.5687759    -2.2359581
19
434_C9H8N2_4-6-15-16 (-45,) energy =    -457.2525499
C           5.8542200     1.0248423     0.0275970
H           6.6902937     1.7132263     0.1122668
C           5.1653229     0.6131430     1.1716173
H           5.4612474     0.9847506     2.1487386
C           4.0862071    -0.2619387     1.0693379
H           3.5356360    -0.5873217     1.9449542
C           3.7110241    -0.7465859    -0.1874848
C           4.3985306    -0.3462653    -1.3366373
H           4.1121122    -0.7460942    -2.3045731
C           5.4658228     0.5453407    -1.2240226
H           6.0020924     0.8526692    -2.1175365
C           0.7822092    -2.6675615    -0.9874655
H          -0.1038313    -2.9560024    -1.5341281
C           1.6196163    -1.6055276    -1.2554584
H           1.5895822    -0.8383644    -2.0152224
N           2.5898080    -1.6128308    -0.2937387
N           2.4331708    -2.6420763     0.5811499
C           1.3382770    -3.2718426     0.1634329
H           0.9896278    -4.1434880     0.7022832
19
434_C9H8N2_4-6-15-16 (-30,) energy =    -457.2535783
C           5.8511615     1.0334463     0.0409938
H           6.6857365     1.7222654     0.1352298
C           5.2090291     0.5447337     1.1814543
H           5.5409961     0.8553585     2.1683012
C           4.1331000    -0.3327898     1.0687118
H           3.6215541    -0.7174668     1.9430868
C           3.7051615    -0.7376451    -0.2002114
C           4.3513752    -0.2655846    -1.3473803
H           4.0408437    -0.6089464    -2.3291287
C           5.4168825     0.6254789    -1.2207638
H           5.9166894     0.9881651    -2.1146897
C           0.8124263    -2.7113047    -1.0108365
H          -0.0357248    -3.0501016    -1.5878051
C           1.6974622    -1.7075212    -1.3396498
H           1.7400015    -1.0412810    -2.1880874
N           2.5968773    -1.6172101    -0.3139183
N           2.3359585    -2.5192162     0.6692890
C           1.2597185    -3.1758806     0.2475339
H           0.8451025    -3.9648927     0.8616179
19
434_C9H8N2_4-6-15-16 (-15,) energy =    -457.2536863
C           5.8510772     1.0352445     0.0507495
H           6.6874654     1.7210267     0.1500355
C           5.2593184     0.4743988     1.1846252
H           5.6333243     0.7233050     2.1739808
C           4.1835707    -0.4024507     1.0663820
H           3.7143990    -0.8424686     1.9375544
C           3.6942410    -0.7282599    -0.2039457
C           4.2917989    -0.1835696    -1.3464361
H           3.9432644    -0.4576953    -2.3365607
C           5.3615376     0.7007129    -1.2121545
H           5.8188116     1.1191301    -2.1045299
C           0.8475243    -2.7696344    -1.0251711
H           0.0463859    -3.1702286    -1.6290587
C           1.7815832    -1.8291282    -1.3990713
H           1.9098125    -1.2870126    -2.3230641
N           2.5952359    -1.6203290    -0.3191426
N           2.2224980    -2.3815283     0.7442770
C           1.1731209    -3.0745057     0.3167123
H           0.6875109    -3.7710550     0.9879017
19
434_C9H8N2_4-6-15-16 (0,) energy =    -457.2534992
C           5.8660112     1.0355328     0.0565439
H           6.7110735     1.7103127     0.1572830
C           5.3288016     0.4025020     1.1792021
H           5.7548203     0.5823932     2.1624915
C           4.2452684    -0.4641846     1.0588238
H           3.8206885    -0.9603455     1.9222272
C           3.6870757    -0.7045628    -0.2027411
C           4.2197516    -0.0735987    -1.3333296
H           3.8004067    -0.2471102    -2.3182655
C           5.3047133     0.7914786    -1.1969457
H           5.7096925     1.2754189    -2.0814470
C           0.9083936    -2.8347709    -1.0444298
H           0.1787425    -3.3241793    -1.6729794
C           1.8946759    -1.9595346    -1.4406735
H           2.1500007    -1.5845836    -2.4191246
N           2.5815646    -1.5903591    -0.3160806
N           2.0792062    -2.1926276     0.7952740
C           1.0738522    -2.9400203     0.3559562
H           0.5020836    -3.5289596     1.0614340
19
434_C9H8N2_4-6-15-16 (15,) energy =    -457.2536863
C           5.8674014     1.0156160     0.0474168
H           6.7211441     1.6801976     0.1430902
C           5.3906459     0.3143178     1.1570497
H           5.8738276     0.4298475     2.1234078
C           4.2991512    -0.5432968     1.0421007
H           3.9210046    -1.0945017     1.8940730
C           3.6708253    -0.6993226    -0.1989421
C           4.1318249     0.0121489    -1.3126457
H           3.6296038    -0.0742747    -2.2703896
C           5.2318725     0.8594138    -1.1847340
H           5.5831849     1.4072565    -2.0547655
C           0.9667994    -2.9149263    -1.0503206
H           0.3113196    -3.4933948    -1.6849078
C           2.0078128    -2.1050009    -1.4467194
H           2.4035238    -1.8895075    -2.4270609
N           2.5602722    -1.5772851    -0.3117355
N           1.9250894    -2.0180374     0.8069633
C           0.9649305    -2.8199371     0.3605576
H           0.3030004    -3.3012010     1.0688831
19
434_C9H8N2_4-6-15-16 (30,) energy =    -457.2535783
C           5.8446132     1.0085976     0.0343975
H           6.6999864     1.6722150     0.1227968
C           5.4287164     0.2461066     1.1286822
H           5.9626680     0.3121166     2.0726611
C           4.3375540    -0.6130498     1.0210354
H           4.0049866    -1.2144476     1.8588364
C           3.6454866    -0.6980242    -0.1918257
C           4.0450655     0.0726572    -1.2885663
H           3.4850870     0.0321387    -2.2175134
C           5.1493839     0.9165685    -1.1719477
H           5.4550387     1.5144449    -2.0260954
C           0.9985107    -2.9738506    -1.0490449
H           0.3968038    -3.6150020    -1.6766640
C           2.0971474    -2.2317658    -1.4249523
H           2.6059818    -2.1372028    -2.3724068
N           2.5454104    -1.5878594    -0.3052808
N           1.7858254    -1.8784891     0.7841978
C           0.8556228    -2.7146088     0.3336229
H           0.1107472    -3.0987354     1.0185745
19
434_C9H8N2_4-6-15-16 (45,) energy =    -457.2525499
C           5.8266763     1.0139736     0.0247765
H           6.6801020     1.6815659     0.1025434
C           5.4770269     0.1933477     1.1005003
H           6.0613726     0.2173565     2.0161369
C           4.3895937    -0.6720539     1.0041002
H           4.1071202    -1.3208221     1.8256963
C           3.6327614    -0.6964634    -0.1714208
C           3.9702415     0.1258480    -1.2500270
H           3.3623465     0.1142461    -2.1495435
C           5.0728365     0.9748483    -1.1489012
H           5.3318522     1.6165685    -1.9864606
C           1.0308332    -3.0206543    -1.0298105
H           0.4743000    -3.7143199    -1.6431696
C           2.1851033    -2.3469370    -1.3685279
H           2.7898138    -2.3588995    -2.2634361
N           2.5443032    -1.6031983    -0.2803574
N           1.6671094    -1.7480614     0.7486395
C           0.7596261    -2.6087275     0.2952073
H          -0.0627211    -2.8991437     0.9363613
19
434_C9H8N2_4-6-15-16 (60,) energy =    -457.2507348
C           5.8200638     1.0216216     0.0163251
H           6.6722880     1.6919324     0.0845642
C           5.5372117     0.1401094     1.0630607
H           6.1717936     0.1193029     1.9446484
C           4.4511421    -0.7288109     0.9763170
H           4.2199731    -1.4257419     1.7749154
C           3.6302627    -0.6927239    -0.1540733
C           3.9057175     0.1852068    -1.2050922
H           3.2528400     0.2052483    -2.0724791
C           5.0056388     1.0395644    -1.1169482
H           5.2178271     1.7264957    -1.9314695
C           1.0744325    -3.0682734    -1.0136715
H           0.5648361    -3.8153016    -1.6048281
C           2.2797534    -2.4594721    -1.2947405
H           2.9749618    -2.5758694    -2.1135554
N           2.5448456    -1.6090317    -0.2599622
N           1.5548795    -1.6137754     0.6727748
C           0.6751777    -2.5036715     0.2191912
H          -0.2203074    -2.7039467     0.7935100
19
434_C9H8N2_4-6-15-16 (75,) energy =    -457.2488369
C           5.8143913     1.0267027     0.0113701
H           6.6675660     1.6961259     0.0778589
C           5.5942666     0.0747101     1.0097160
H           6.2765029    -0.0006313     1.8518055
C           4.5043587    -0.7908834     0.9244016
H           4.3193097    -1.5397586     1.6877629
C           3.6247463    -0.6854012    -0.1551151
C           3.8396746     0.2619465    -1.1581901
H           3.1425293     0.3279355    -1.9879819
C           4.9386632     1.1175740    -1.0721309
H           5.1057899     1.8584863    -1.8489158
C           1.1176423    -3.1329739    -0.9705738
H           0.6596440    -3.9497992    -1.5093924
C           2.3628785    -2.5803907    -1.1897727
H           3.1421842    -2.8110820    -1.9018714
N           2.5270633    -1.5941515    -0.2610118
N           1.4374681    -1.4573884     0.5408416
C           0.5936920    -2.3953256     0.1147361
H          -0.3663657    -2.5048923     0.6028049
19
434_C9H8N2_4-6-15-16 (90,) energy =    -457.2479782
C           5.8351922     1.0460425     0.0006077
H           6.6921149     1.7083491     0.0877015
C           5.6641753     0.0027879     0.9130069
H           6.3852742    -0.1475656     1.7115059
C           4.5646719    -0.8491045     0.8040059
H           4.4112279    -1.6607792     1.5083173
C           3.6402386    -0.6511488    -0.2230706
C           3.8025940     0.3923562    -1.1360698
H           3.0648641     0.5331264    -1.9198723
C           4.9041623     1.2408380    -1.0218166
H           5.0334053     2.0544832    -1.7299698
C           1.1719267    -3.1895871    -0.8802167
H           0.7620800    -4.0963916    -1.3009936
C           2.4450034    -2.6864698    -1.0572417
H           3.2944132    -3.0461440    -1.6201279
N           2.5144555    -1.5275608    -0.3415871
N           1.3480797    -1.2460607     0.2970527
C           0.5404627    -2.2532840    -0.0315072
H          -0.4704936    -2.2689833     0.3554227
19
434_C9H8N2_4-6-15-16 (105,) energy =    -457.2488279
C           5.8252193     1.0465757     0.0106756
H           6.6799511     1.7074455     0.1253661
C           5.7031784    -0.0832724     0.8217273
H           6.4572745    -0.3004244     1.5730311
C           4.6027648    -0.9298194     0.6822595
H           4.4820928    -1.8006215     1.3194671
C           3.6388082    -0.6509052    -0.2888701
C           3.7478637     0.4840750    -1.0947985
H           2.9731399     0.6919976    -1.8257171
C           4.8445868     1.3317748    -0.9423549
H           4.9337266     2.2144803    -1.5693290
C           1.1935913    -3.2507057    -0.7418777
H           0.8116164    -4.2239188    -1.0142956
C           2.4872352    -2.7911520    -0.8811528
H           3.3815840    -3.2533366    -1.2739106
N           2.5011674    -1.5047834    -0.4265369
N           1.2822192    -1.1069645     0.0264786
C           0.4942009    -2.1613374    -0.1754266
H          -0.5513499    -2.1010294     0.0987454
19
434_C9H8N2_4-6-15-16 (120,) energy =    -457.2507120
C           5.8194723     1.0517333     0.0078054
H           6.6711756     1.7155228     0.1272423
C           5.7500601    -0.1350161     0.7393740
H           6.5415157    -0.3934511     1.4373319
C           4.6521682    -0.9843520     0.5970248
H           4.5714304    -1.8945336     1.1836039
C           3.6395866    -0.6543740    -0.3072439
C           3.6946062     0.5387077    -1.0321096
H           2.8811706     0.7855668    -1.7060010
C           4.7866433     1.3895249    -0.8704628
H           4.8328238     2.3164500    -1.4352456
C           1.2013563    -3.2719491    -0.6510489
H           0.8279580    -4.2711711    -0.8222281
C           2.5123168    -2.8476882    -0.7136246
H           3.4309312    -3.3684404    -0.9427029
N           2.5081986    -1.5079897    -0.4510696
N           1.2568539    -1.0403329    -0.1952356
C           0.4704156    -2.1060331    -0.3280588
H          -0.5965538    -1.9988716    -0.1799243
19
434_C9H8N2_4-6-15-16 (135,) energy =    -457.2525294
C           5.8264402     1.0506919    -0.0101601
H           6.6790838     1.7148564     0.0992238
C           5.8018760    -0.1739379     0.6586802
H           6.6300707    -0.4632319     1.2996161
C           4.7033188    -1.0243214     0.5303715
H           4.6618494    -1.9607989     1.0781998
C           3.6400094    -0.6560236    -0.2988784
C           3.6510371     0.5740911    -0.9631057
H           2.8021767     0.8477882    -1.5796419
C           4.7448874     1.4237040    -0.8124296
H           4.7546268     2.3790188    -1.3298205
C           1.1996996    -3.2758447    -0.5995204
H           0.8248492    -4.2837286    -0.7032430
C           2.5183965    -2.8754362    -0.5575270
H           3.4424643    -3.4299014    -0.6318190
N           2.5165081    -1.5144724    -0.4402307
N           1.2553627    -1.0085571    -0.3890886
C           0.4641828    -2.0733103    -0.4916448
H          -0.6097986    -1.9389577    -0.4780382
19
434_C9H8N2_4-6-15-16 (150,) energy =    -457.2535751
C           5.8314626     1.0529319    -0.0302210
H           6.6865559     1.7162091     0.0632124
C           5.8479827    -0.2031836     0.5773146
H           6.7121458    -0.5198363     1.1547312
C           4.7488363    -1.0547982     0.4688161
H           4.7496186    -2.0146641     0.9756236
C           3.6344621    -0.6533804    -0.2752411
C           3.6065363     0.6070728    -0.8814409
H           2.7254020     0.9031039    -1.4383187
C           4.7043841     1.4546167    -0.7513636
H           4.6800495     2.4329074    -1.2235153
C           1.1916071    -3.2756480    -0.5522469
H           0.8121238    -4.2860767    -0.5976974
C           2.5041077    -2.8836565    -0.4006475
H           3.4163378    -3.4554442    -0.3199493
N           2.5155322    -1.5166249    -0.4093499
N           1.2669736    -1.0008943    -0.5612178
C           0.4713199    -2.0627489    -0.6474785
H          -0.5943021    -1.9184178    -0.7706389
19
434_C9H8N2_4-6-15-16 (165,) energy =    -457.2536850
C           5.8386834     1.0604208    -0.0430703
H           6.6927150     1.7260466     0.0422273
C           5.8947720    -0.2277129     0.4898676
H           6.7911714    -0.5704848     0.9992526
C           4.7999628    -1.0852876     0.3883314
H           4.8491267    -2.0730944     0.8341872
C           3.6393138    -0.6543657    -0.2645212
C           3.5743207     0.6373986    -0.7998421
H           2.6653254     0.9542163    -1.2958637
C           4.6721554     1.4864524    -0.6819109
H           4.6143064     2.4880023    -1.0992914
C           1.1800342    -3.2711929    -0.4890965
H           0.7847644    -4.2761050    -0.4589128
C           2.4758534    -2.8779795    -0.2380051
H           3.3538402    -3.4526611     0.0128469
N           2.5210716    -1.5197943    -0.3967007
N           1.3084107    -1.0152330    -0.7489877
C           0.5026690    -2.0698443    -0.8013783
H          -0.5387627    -1.9298248    -1.0607651
19
434_C9H8N2_4-6-15-16 (180,) energy =    -457.2534992
C           5.8544022     1.0900048    -0.0311299
H           6.7006329     1.7636950     0.0671100
C           5.9536082    -0.2330276     0.3996498
H           6.8789486    -0.5982711     0.8365609
C           4.8713437    -1.1034685     0.2765815
H           4.9726850    -2.1274270     0.6190504
C           3.6723986    -0.6473826    -0.2842996
C           3.5654903     0.6794466    -0.7189977
H           2.6311799     1.0153672    -1.1504327
C           4.6551902     1.5370490    -0.5894515
H           4.5621996     2.5648150    -0.9296784
C           1.1757796    -3.2399875    -0.3944572
H           0.7472399    -4.2215167    -0.2532339
C           2.4492262    -2.8327552    -0.0653569
H           3.2664776    -3.3743695     0.3840077
N           2.5555648    -1.5155058    -0.4208428
N           1.4000714    -1.0518562    -0.9685881
C           0.5719611    -2.0892844    -0.9519546
H          -0.4313280    -1.9742172    -1.3413568
