17
287_C6H7ClN2O_9-0-1-2 (-165,) energy =    -877.7837436
C           2.8436129    -0.7999036    -1.4735937
N           1.4920991    -0.6641336    -1.3589120
C           0.5812743    -1.6203295    -1.9661726
H          -0.3211761    -1.1094562    -2.3156645
H           0.2914181    -2.4110108    -1.2610668
H           1.0889498    -2.0774677    -2.8159147
H           1.1396446    -0.0909452    -0.6037645
C           3.5230935     0.9016356     0.4871487
Cl          2.0080856     1.4679925     1.1426973
C           3.6884750     0.0001934    -0.5612720
N           5.0468326    -0.1390578    -0.7202879
H           5.4119572    -0.7622118    -1.4295428
C           5.7230741     0.6270388     0.1770005
H           6.8028156     0.6445902     0.2052690
C           4.7959796     1.2993497     0.9556384
H           4.9994570     1.9897319     1.7611930
O           3.3863330    -1.5593975    -2.2826221
17
287_C6H7ClN2O_9-0-1-2 (-150,) energy =    -877.7811889
C           2.8419838    -0.7184122    -1.5693402
N           1.4847989    -0.5550292    -1.4900359
C           0.5921096    -1.6398645    -1.8791440
H          -0.3784847    -1.2324622    -2.1760331
H           0.4432964    -2.3581222    -1.0611728
H           1.0353533    -2.1608770    -2.7282312
H           1.1539400     0.0331720    -0.7348747
C           3.5137437     0.8891340     0.4716600
Cl          1.9994695     1.4747795     1.1108707
C           3.6831173     0.0256406    -0.6086002
N           5.0418103    -0.1432094    -0.7388093
H           5.4097296    -0.7544359    -1.4569634
C           5.7130336     0.5631640     0.2090479
H           6.7914918     0.5455316     0.2693376
C           4.7834137     1.2293060     0.9903475
H           4.9834572     1.8787817     1.8300387
O           3.3842520    -1.4912343    -2.3642665
17
287_C6H7ClN2O_9-0-1-2 (-135,) energy =    -877.7768169
C           2.8498535    -0.6332622    -1.6816570
N           1.4828395    -0.4681130    -1.6361056
C           0.6223338    -1.6408891    -1.7898539
H          -0.3814598    -1.3253091    -2.0874692
H           0.5543550    -2.2214902    -0.8594631
H           1.0396280    -2.2742063    -2.5735544
H           1.1730356     0.1651489    -0.9070156
C           3.4822333     0.8679327     0.4504468
Cl          1.9585572     1.4441792     1.0743687
C           3.6723401     0.0564867    -0.6672044
N           5.0332611    -0.1212616    -0.7669410
H           5.4144799    -0.7086776    -1.4978680
C           5.6838876     0.5242049     0.2363204
H           6.7595798     0.4869674     0.3292835
C           4.7394629     1.1629631     1.0231615
H           4.9221917     1.7656944     1.9007829
O           3.4028078    -1.4012307    -2.4718169
17
287_C6H7ClN2O_9-0-1-2 (-120,) energy =    -877.7711168
C           2.8100053    -0.5976729    -1.7647497
N           1.4318107    -0.4357198    -1.7266392
C           0.6092427    -1.6457378    -1.6123762
H          -0.4300013    -1.4021669    -1.8494451
H           0.6542459    -2.0819697    -0.6045909
H           0.9674331    -2.3811275    -2.3346672
H           1.1461896     0.2610019    -1.0453441
C           3.4321006     0.8135447     0.4287735
Cl          1.9097884     1.3930786     1.0510709
C           3.6284019     0.0385815    -0.7149134
N           4.9893020    -0.1542818    -0.8000963
H           5.3756520    -0.7212003    -1.5443261
C           5.6316985     0.4441121     0.2360373
H           6.7048091     0.3849642     0.3465287
C           4.6836695     1.0683098     1.0309408
H           4.8610777     1.6351647     1.9331944
O           3.3606107    -1.3517061    -2.5668402
17
287_C6H7ClN2O_9-0-1-2 (-105,) energy =    -877.7649090
C           2.8403897    -0.5382131    -1.8818499
N           1.4460236    -0.4001286    -1.8802810
C           0.6852660    -1.6067181    -1.5149279
H          -0.3784737    -1.4208697    -1.6856535
H           0.8339270    -1.8975361    -0.4650614
H           0.9990038    -2.4302998    -2.1597999
H           1.1635746     0.3625614    -1.2695319
C           3.3772435     0.7730369     0.3905435
Cl          1.8322355     1.3249677     0.9787129
C           3.6208807     0.0497185    -0.7788257
N           4.9858162    -0.1367712    -0.8188899
H           5.4045173    -0.6704738    -1.5700407
C           5.5843970     0.4151471     0.2672318
H           6.6525079     0.3533386     0.4181026
C           4.6034195     1.0022134     1.0511069
H           4.7440188     1.5289301     1.9836218
O           3.4183338    -1.2514679    -2.6981063
17
287_C6H7ClN2O_9-0-1-2 (-90,) energy =    -877.7625840
C           2.8088708    -0.3817388    -1.8610472
N           1.4111162    -0.1823362    -1.7554445
C           0.6495808    -1.3179884    -1.1944484
H           0.7895543    -2.2459716    -1.7668936
H          -0.4119411    -1.0565764    -1.1902661
H           0.9554873    -1.4914500    -0.1593034
H           1.1033113    -0.0684125    -2.7226950
C           3.4307270     0.5541030     0.5531101
Cl          1.9180774     0.9817232     1.2849214
C           3.6312417     0.0068276    -0.7169842
N           4.9959050    -0.1606143    -0.8418366
H           5.3957097    -0.5127373    -1.7016553
C           5.6380922     0.2695434     0.2734539
H           6.7149687     0.2335805     0.3549538
C           4.6870293     0.7219958     1.1752363
H           4.8664794     1.1275544     2.1602230
O           3.3472916    -0.7059136    -2.9186569
17
287_C6H7ClN2O_9-0-1-2 (-75,) energy =    -877.7670372
C           2.8236595    -0.3100858    -1.9317191
N           1.4287582    -0.2230854    -1.8425481
C           0.7077643    -1.2854134    -1.1185517
H           0.8122822    -2.2662392    -1.6034103
H          -0.3524096    -1.0223525    -1.0720924
H           1.0793991    -1.3570010    -0.0947288
H           1.0939757    -0.1956045    -2.8052494
C           3.3987647     0.5333147     0.5390139
Cl          1.8831201     0.9994591     1.2453677
C           3.6147825     0.0118188    -0.7384405
N           4.9790423    -0.1680913    -0.8423133
H           5.3908038    -0.4762281    -1.7134642
C           5.6071823     0.2244724     0.2953941
H           6.6812988     0.1665776     0.3973290
C           4.6457623     0.6671664     1.1894690
H           4.8108289     1.0461889     2.1874538
O           3.3987487    -0.4987816    -3.0045262
17
287_C6H7ClN2O_9-0-1-2 (-60,) energy =    -877.7700856
C           2.8326227    -0.2496075    -1.9700784
N           1.4479804    -0.2938046    -1.9077096
C           0.7481552    -1.2589607    -1.0506452
H           0.7436096    -2.2657182    -1.4910626
H          -0.2846079    -0.9323021    -0.9000483
H           1.2302116    -1.3091783    -0.0746178
H           1.1020896    -0.3272262    -2.8639809
C           3.3608821     0.5335513     0.5406652
Cl          1.8437563     1.0471264     1.2151209
C           3.5929374     0.0240415    -0.7381917
N           4.9561654    -0.1698229    -0.8192429
H           5.3813379    -0.4554506    -1.6916528
C           5.5688279     0.1951362     0.3369134
H           6.6394578     0.1161614     0.4587437
C           4.5972958     0.6388277     1.2179921
H           4.7476998     1.0029909     2.2238099
O           3.4370913    -0.3216696    -3.0424021
17
287_C6H7ClN2O_9-0-1-2 (-45,) energy =    -877.7717120
C           2.8373570    -0.2618141    -2.0385328
N           1.4729232    -0.4349964    -2.0069246
C           0.7569065    -1.2635202    -1.0368897
H           0.5068577    -2.2392583    -1.4730777
H          -0.1655513    -0.7745120    -0.7093260
H           1.3825833    -1.4321099    -0.1608850
H           1.1268946    -0.5143755    -2.9579749
C           3.3139626     0.5069641     0.4930224
Cl          1.7863871     1.0347140     1.1356573
C           3.5683848    -0.0016506    -0.7813897
N           4.9337591    -0.1846716    -0.8416551
H           5.3754022    -0.4549713    -1.7107568
C           5.5263261     0.1796413     0.3258761
H           6.5949826     0.1030727     0.4650806
C           4.5390102     0.6166482     1.1915040
H           4.6708211     0.9802668     2.2001297
O           3.4619485    -0.2518014    -3.1031277
17
287_C6H7ClN2O_9-0-1-2 (-30,) energy =    -877.7722680
C           2.8498135    -0.2356767    -2.0734218
N           1.5170863    -0.5443724    -2.0681086
C           0.7700416    -1.2489121    -1.0327317
H           0.3703153    -2.1855920    -1.4389140
H          -0.0602167    -0.6477738    -0.6486988
H           1.4306025    -1.4935581    -0.2004878
H           1.1709836    -0.6422831    -3.0155272
C           3.3041302     0.4928923     0.4813588
Cl          1.7745283     1.0151081     1.1265318
C           3.5655061     0.0068664    -0.8000296
N           4.9329323    -0.1597295    -0.8600337
H           5.3795174    -0.4000289    -1.7353734
C           5.5199960     0.1895395     0.3154872
H           6.5886688     0.1171529     0.4566755
C           4.5268668     0.6017377     1.1853866
H           4.6521383     0.9490943     2.2005525
O           3.4804685    -0.1438019    -3.1318090
17
287_C6H7ClN2O_9-0-1-2 (-15,) energy =    -877.7719355
C           2.8496851    -0.2258175    -2.0690069
N           1.5565866    -0.6576705    -2.0899062
C           0.7524995    -1.2329629    -1.0237492
H           0.2620210    -2.1395513    -1.3950049
H          -0.0145569    -0.5414665    -0.6597402
H           1.3924140    -1.5114105    -0.1853862
H           1.2123813    -0.7487732    -3.0377160
C           3.2911949     0.4719817     0.5048181
Cl          1.7622489     0.9836642     1.1629278
C           3.5544076     0.0078763    -0.7842299
N           4.9241050    -0.1391542    -0.8493038
H           5.3717138    -0.3565843    -1.7300564
C           5.5100997     0.1964733     0.3308438
H           6.5796888     0.1323637     0.4690108
C           4.5143684     0.5831224     1.2085338
H           4.6370208     0.9165143     2.2286774
O           3.4806942    -0.0674230    -3.1202627
17
287_C6H7ClN2O_9-0-1-2 (0,) energy =    -877.7709598
C           2.9542350    -1.5691166    -0.8752289
N           1.6690000    -1.6538168    -1.3199596
C           0.6771458    -0.6187670    -1.5515263
H           0.0105031    -0.4700309    -0.6950109
H           0.0753864    -0.9001178    -2.4218744
H           1.1733397     0.3270937    -1.7731477
H           1.3946171    -2.6153862    -1.4787815
C           3.2490987     0.9478269     0.0878818
Cl          1.7208836     1.4332788     0.7695947
C           3.5698002    -0.2598276    -0.5335034
N           4.9287673    -0.2027960    -0.7638585
H           5.4216609    -1.0185225    -1.1029532
C           5.4518493     0.9760368    -0.3337028
H           6.5025627     1.2017441    -0.4443751
C           4.4249010     1.7274304     0.2056704
H           4.4969289     2.7117171     0.6448390
O           3.6740961    -2.5741698    -0.8481376
17
287_C6H7ClN2O_9-0-1-2 (15,) energy =    -877.7719355
C           2.9512852    -1.5796909    -0.8711167
N           1.6306200    -1.6597204    -1.2004746
C           0.7004114    -0.6051576    -1.5703634
H          -0.0284394    -0.3953826    -0.7805429
H           0.1619072    -0.9046831    -2.4762332
H           1.2478102     0.3129339    -1.7879382
H           1.3528159    -2.6156530    -1.3852400
C           3.2553482     0.9189321     0.1142067
Cl          1.7316169     1.3754970     0.8230046
C           3.5740605    -0.2766908    -0.5301756
N           4.9265340    -0.2048320    -0.7901283
H           5.4189999    -1.0107015    -1.1526286
C           5.4482879     0.9720797    -0.3525944
H           6.4945078     1.2089180    -0.4812518
C           4.4264929     1.7070236     0.2193413
H           4.5000090     2.6859446     0.6701137
O           3.6718622    -2.5839026    -0.8980921
17
287_C6H7ClN2O_9-0-1-2 (30,) energy =    -877.7722680
C           2.9508802    -1.5828497    -0.8814397
N           1.5996708    -1.6553211    -1.0825960
C           0.7171166    -0.6105852    -1.5886416
H          -0.0839604    -0.3755078    -0.8806929
H           0.2687632    -0.9331544    -2.5357756
H           1.2884562     0.2991377    -1.7751827
H           1.3193525    -2.6102045    -1.2738943
C           3.2718187     0.8943149     0.1308722
Cl          1.7493457     1.3367569     0.8484794
C           3.5861969    -0.2912342    -0.5340600
N           4.9343119    -0.2121883    -0.8125328
H           5.4233399    -1.0100212    -1.1968714
C           5.4586798     0.9585844    -0.3621870
H           6.5030338     1.1993324    -0.4985707
C           4.4423062     1.6829530     0.2338106
H           4.5200305     2.6554842     0.6975492
O           3.6658070    -2.5860760    -0.9750707
17
287_C6H7ClN2O_9-0-1-2 (45,) energy =    -877.7717120
C           2.9335574    -1.5462562    -0.9018459
N           1.5607505    -1.6119010    -0.9631872
C           0.7031022    -0.6140548    -1.6025944
H          -0.1950979    -0.4291797    -1.0055912
H           0.4022652    -0.9486219    -2.6037992
H           1.2431443     0.3266985    -1.7056270
H           1.2824057    -2.5726166    -1.1366322
C           3.2819374     0.9049904     0.1455151
Cl          1.7621583     1.3444308     0.8681145
C           3.5868919    -0.2715223    -0.5403175
N           4.9315465    -0.1909233    -0.8349070
H           5.4125562    -0.9793765    -1.2477256
C           5.4633115     0.9705991    -0.3711397
H           6.5074335     1.2098884    -0.5119137
C           4.4552172     1.6882399     0.2483898
H           4.5413644     2.6528966     0.7268605
O           3.6357451    -2.5462166    -1.0767409
17
287_C6H7ClN2O_9-0-1-2 (60,) energy =    -877.7700856
C           2.9247218    -1.4804536    -0.8806417
N           1.5408258    -1.5330738    -0.8089447
C           0.6958564    -0.6289647    -1.5991687
H          -0.3126966    -0.6089159    -1.1767901
H           0.6364566    -0.9427388    -2.6506277
H           1.0960380     0.3839241    -1.5612171
H           1.2670480    -2.5045151    -0.9376282
C           3.3272506     0.9529331     0.1742642
Cl          1.8141866     1.4264625     0.8861127
C           3.6102489    -0.2297993    -0.5112867
N           4.9534005    -0.1686249    -0.8190921
H           5.4169569    -0.9599138    -1.2462114
C           5.5060469     0.9833076    -0.3577016
H           6.5532388     1.2058784    -0.5032321
C           4.5130413     1.7167804     0.2691902
H           4.6179171     2.6802013     0.7463970
O           3.6003063    -2.4798397    -1.1361141
17
287_C6H7ClN2O_9-0-1-2 (75,) energy =    -877.7670372
C           2.9075939    -1.4359613    -0.9348304
N           1.5229863    -1.4788798    -0.7291847
C           0.6585786    -0.6963962    -1.6308842
H          -0.3748647    -0.7739795    -1.2825972
H           0.7131605    -1.0478355    -2.6708564
H           0.9435748     0.3568059    -1.5993730
H           1.2660759    -2.4631075    -0.7993376
C           3.3649833     0.9546019     0.1708794
Cl          1.8468028     1.4655564     0.8398023
C           3.6308928    -0.2266758    -0.5250993
N           4.9780291    -0.1896725    -0.8221117
H           5.4261935    -0.9781456    -1.2702841
C           5.5498748     0.9420054    -0.3369917
H           6.6038925     1.1426470    -0.4644994
C           4.5658382     1.6893244     0.2897953
H           4.6871780     2.6444642     0.7795533
O           3.5437967    -2.4242158    -1.3034057
17
287_C6H7ClN2O_9-0-1-2 (90,) energy =    -877.7625840
C           2.8812421    -1.3586640    -0.9954770
N           1.5024170    -1.3992149    -0.6763713
C           0.6037004    -0.7725223    -1.6683004
H          -0.4280128    -0.8918266    -1.3269547
H           0.7047962    -1.2139183    -2.6699930
H           0.8136109     0.2985535    -1.7309662
H           1.2802350    -2.3960957    -0.6637319
C           3.3974822     0.9687799     0.1907604
Cl          1.8769599     1.5098379     0.8246247
C           3.6451709    -0.2034316    -0.5285630
N           4.9953975    -0.1886512    -0.8159661
H           5.4269630    -0.9616164    -1.3052496
C           5.5861998     0.9175135    -0.2976371
H           6.6464374     1.0955274    -0.4062914
C           4.6127203     1.6721650     0.3389820
H           4.7516635     2.6124759     0.8521962
O           3.4679773    -2.3186253    -1.4932128
17
287_C6H7ClN2O_9-0-1-2 (105,) energy =    -877.7649090
C           2.9003968    -1.3575283    -1.1552999
N           1.5274650    -1.4932245    -0.9104077
C           0.6381689    -1.0513189    -1.9975897
H           0.6804683     0.0349640    -2.1621959
H          -0.3890800    -1.3346174    -1.7531906
H           0.9265322    -1.5619722    -2.9188161
H           1.2674346    -1.0062173    -0.0561851
C           3.3759313     0.7768454     0.3905558
Cl          1.8451025     1.1579846     1.1314461
C           3.6433459    -0.2706807    -0.4932721
N           4.9857246    -0.1697198    -0.7886700
H           5.4118617    -0.8115651    -1.4450377
C           5.5461162     0.8890651    -0.1503059
H           6.5901038     1.1380577    -0.2749486
C           4.5637014     1.5082056     0.6066290
H           4.6786776     2.3785754     1.2359300
O           3.4738881    -2.0282118    -2.0098862
17
287_C6H7ClN2O_9-0-1-2 (120,) energy =    -877.7711168
C           2.8560895    -1.2371403    -1.1967364
N           1.4985359    -1.3382091    -0.9248228
C           0.5666412    -1.1495238    -2.0427618
H           0.4963980    -0.0961675    -2.3484763
H          -0.4261609    -1.5033386    -1.7517016
H           0.9128038    -1.7435686    -2.8901608
H           1.2241960    -0.7737116    -0.1265471
C           3.4310677     0.8144919     0.4312411
Cl          1.9225982     1.2279874     1.2020111
C           3.6449697    -0.2054707    -0.4966836
N           4.9862098    -0.1487002    -0.8038501
H           5.3767665    -0.7824683    -1.4896667
C           5.5980060     0.8587968    -0.1293299
H           6.6502647     1.0679589    -0.2569072
C           4.6507474     1.4871885     0.6631845
H           4.8081125     2.3259406     1.3254471
O           3.3977734    -1.8912299    -2.0877059
17
287_C6H7ClN2O_9-0-1-2 (135,) energy =    -877.7768168
C           2.8862046    -1.1471651    -1.2244274
N           1.5394717    -1.2403574    -0.9492648
C           0.5935167    -1.3244274    -2.0617450
H           0.4046985    -0.3399252    -2.5116910
H          -0.3533244    -1.7432385    -1.7098184
H           1.0116792    -1.9869157    -2.8204706
H           1.2319261    -0.6230680    -0.2056641
C           3.4839951     0.8336251     0.4839428
Cl          1.9737431     1.2488680     1.2518134
C           3.6865442    -0.1566724    -0.4762793
N           5.0302268    -0.1161117    -0.7703969
H           5.4129153    -0.7345985    -1.4744329
C           5.6567836     0.8538886    -0.0541572
H           6.7148630     1.0432222    -0.1625961
C           4.7150362     1.4728671     0.7514828
H           4.8827082     2.2833627     1.4456594
O           3.4280726    -1.7874953    -2.1278861
17
287_C6H7ClN2O_9-0-1-2 (150,) energy =    -877.7811889
C           2.8623661    -1.0264788    -1.2936154
N           1.5226812    -1.0851754    -1.0166108
C           0.5703872    -1.4154524    -2.0698059
H           0.2976659    -0.5324036    -2.6639151
H          -0.3354689    -1.8419253    -1.6296760
H           1.0292667    -2.1538746    -2.7278569
H           1.1882866    -0.4383919    -0.3126446
C           3.5154780     0.8547227     0.5051603
Cl          2.0142915     1.2848848     1.2836241
C           3.6900739    -0.0940504    -0.5001320
N           5.0346553    -0.0848738    -0.7891681
H           5.4010263    -0.6890477    -1.5140497
C           5.6912798     0.8247078    -0.0214178
H           6.7563042     0.9797296    -0.1147535
C           4.7669857     1.4360780     0.8094078
H           4.9588323     2.2048809     1.5436092
O           3.3935555    -1.6718936    -2.2016320
17
287_C6H7ClN2O_9-0-1-2 (165,) energy =    -877.7837437
C           2.8495686    -0.9219326    -1.3618280
N           1.5103541    -0.9415110    -1.1082488
C           0.5678751    -1.5047719    -2.0606832
H           0.1547892    -0.7361607    -2.7277259
H          -0.2555912    -1.9929246    -1.5304009
H           1.0974071    -2.2435774    -2.6627857
H           1.1532344    -0.2947409    -0.4174738
C           3.5246248     0.8696444     0.5185852
Cl          2.0196786     1.3187220     1.2796565
C           3.6895533    -0.0437380    -0.5195198
N           5.0386392    -0.0669711    -0.7826706
H           5.4005565    -0.6614018    -1.5177530
C           5.7093117     0.7859184     0.0371527
H           6.7811701     0.9048941    -0.0254152
C           4.7882083     1.3945514     0.8731636
H           4.9896171     2.1251301     1.6429923
O           3.3835487    -1.5831736    -2.2582274
17
287_C6H7ClN2O_9-0-1-2 (180,) energy =    -877.7844987
C           2.9021886    -0.9239537    -1.4752371
N           1.5557138    -0.8675334    -1.2911850
C           0.6288480    -1.6421957    -2.0953702
H          -0.0401478    -0.9887526    -2.6683544
H           0.0214741    -2.3037032    -1.4664204
H           1.2167362    -2.2457622    -2.7874419
H           1.1911274    -0.2601198    -0.5703505
C           3.5720088     0.8178277     0.4534798
Cl          2.0560031     1.3215031     1.1568361
C           3.7417652    -0.0864462    -0.5913926
N           5.0984073    -0.1659061    -0.7971599
H           5.4655071    -0.7706766    -1.5211554
C           5.7699987     0.6422551     0.0663939
H           6.8479083     0.7120509     0.0535944
C           4.8410186     1.2793036     0.8717944
H           5.0407018     1.9874707     1.6627310
O           3.4488867    -1.6300724    -2.3295548
