21
237_C8H9NO3_0-1-8-6 (-165,) energy =    -590.6899744
C           1.5673136    -1.3456144    -0.5493386
O           2.0848440    -0.1180989    -0.1753327
C           5.8917615     1.2427168     0.7686360
H           6.8895520     1.5865567     1.0137318
C           4.7693085     1.9482829     1.0945176
H           4.8545297     2.8935300     1.6241458
C           3.4827869     1.4636430     0.7640040
H           2.5762591     1.9675114     1.0724248
C           3.3776394     0.2532619     0.1249168
N           4.4796378    -0.4235809    -0.3243525
C           4.4422458    -1.4938626    -1.3306935
H           3.6713103    -1.2795747    -2.0738605
H           4.2475652    -2.4639984    -0.8743759
H           5.4242934    -1.5022731    -1.8008270
C           5.8181286     0.0043589     0.0361746
C           0.2941303    -1.1244081    -1.3238160
H          -0.1869704    -2.0852793    -1.5082880
H           0.5153614    -0.6297040    -2.2759372
H          -0.3776894    -0.4663390    -0.7641075
O           2.0335187    -2.4051389    -0.2270258
O           6.7772830    -0.6655325    -0.3346503
21
237_C8H9NO3_0-1-8-6 (-150,) energy =    -590.6953938
C           1.5752818    -1.2763117    -0.5188078
O           2.0825805     0.0006756    -0.3530078
C           5.8810891     1.1684571     0.8449417
H           6.8810472     1.4614596     1.1421012
C           4.7763714     1.9069445     1.1573112
H           4.8785259     2.8264461     1.7276569
C           3.4840779     1.4893142     0.7581134
H           2.5872760     2.0219816     1.0462220
C           3.3598856     0.3121179     0.0674643
N           4.4521414    -0.3920120    -0.3639061
C           4.3988242    -1.4389095    -1.3915078
H           3.6088920    -1.2117980    -2.1103702
H           4.2220302    -2.4197752    -0.9489838
H           5.3687550    -1.4363696    -1.8867050
C           5.7878437    -0.0386295     0.0610256
C           0.3157776    -1.2049051    -1.3417396
H          -0.1535076    -2.1886296    -1.3671599
H           0.5515994    -0.8798177    -2.3610143
H          -0.3723131    -0.4679819    -0.9162501
O           2.0570684    -2.2601461    -0.0243047
O           6.7325217    -0.7348059    -0.2991999
21
237_C8H9NO3_0-1-8-6 (-135,) energy =    -590.7000588
C           1.5766466    -1.2112575    -0.4897422
O           2.1146035     0.0642927    -0.5348712
C           5.8517793     1.1444344     0.9064629
H           6.8423518     1.4123884     1.2546159
C           4.7427903     1.8773663     1.2157077
H           4.8326543     2.7657858     1.8352413
C           3.4614593     1.4943233     0.7468726
H           2.5609873     2.0330051     1.0111484
C           3.3589318     0.3592193    -0.0097034
N           4.4577102    -0.3494582    -0.4126564
C           4.4056389    -1.4075453    -1.4266122
H           3.6310134    -1.1764360    -2.1605297
H           4.2043760    -2.3775871    -0.9685551
H           5.3837094    -1.4325482    -1.9047311
C           5.7782712    -0.0279363     0.0668378
C           0.3175268    -1.2505450    -1.3148059
H          -0.1548598    -2.2267396    -1.2036002
H           0.5537417    -1.0702582    -2.3691197
H          -0.3683642    -0.4599852    -0.9949715
O           2.0523311    -2.1130399     0.1468072
O           6.7292014    -0.7208684    -0.2834633
21
237_C8H9NO3_0-1-8-6 (-120,) energy =    -590.7030866
C           1.5528207    -1.1552020    -0.4451092
O           2.1478544     0.0729139    -0.6869508
C           5.8060744     1.1362086     0.9456676
H           6.7822482     1.3966591     1.3375994
C           4.6799877     1.8386686     1.2630302
H           4.7422356     2.6928056     1.9321388
C           3.4156251     1.4691577     0.7357974
H           2.5030673     1.9944569     0.9849208
C           3.3571254     0.3822345    -0.0887111
N           4.4702683    -0.3118853    -0.4717789
C           4.4201199    -1.3891219    -1.4644882
H           3.6957564    -1.1399000    -2.2423553
H           4.1475552    -2.3356482    -0.9916688
H           5.4197018    -1.4742946    -1.8873560
C           5.7725097     0.0002657     0.0523138
C           0.2874774    -1.2695028    -1.2530727
H          -0.2044294    -2.2140906    -1.0203068
H           0.5194701    -1.2239866    -2.3224483
H          -0.3797463    -0.4314088    -1.0285574
O           2.0052615    -1.9707238     0.3131972
O           6.7412160    -0.6714166    -0.2910088
21
237_C8H9NO3_0-1-8-6 (-105,) energy =    -590.7045081
C           1.5096200    -1.0922683    -0.3925071
O           2.1873853     0.0438272    -0.8083139
C           5.7747887     1.1330063     0.9507209
H           6.7384304     1.3970436     1.3703451
C           4.6276842     1.7905251     1.2879705
H           4.6611274     2.6097604     2.0013155
C           3.3786730     1.4215870     0.7217652
H           2.4527218     1.9231571     0.9703744
C           3.3645857     0.3832583    -0.1622438
N           4.4937647    -0.2839879    -0.5407864
C           4.4437185    -1.3662594    -1.5280811
H           3.8637163    -1.0527213    -2.3989252
H           3.9987790    -2.2627161    -1.0875315
H           5.4743371    -1.5742782    -1.8099649
C           5.7832508     0.0383940     0.0047236
C           0.2508679    -1.2555891    -1.2018541
H          -0.2916078    -2.1340081    -0.8518682
H           0.4996545    -1.3689172    -2.2622763
H          -0.3757403    -0.3631213    -1.1075676
O           1.9075963    -1.8102459     0.4854101
O           6.7745720    -0.5929001    -0.3503999
21
237_C8H9NO3_0-1-8-6 (-90,) energy =    -590.7046631
C           1.4880089    -1.0556253    -0.3309986
O           2.2665543    -0.0505103    -0.8873526
C           5.7838750     1.1237354     0.9504480
H           6.7341337     1.4076552     1.3872644
C           4.6103567     1.7217974     1.3075501
H           4.6093683     2.5116571     2.0540296
C           3.3785346     1.3317492     0.7174288
H           2.4351821     1.7948120     0.9751742
C           3.4116434     0.3349943    -0.2117994
N           4.5643987    -0.2873803    -0.5935080
C           4.5397645    -1.3660913    -1.5856478
H           4.0519968    -1.0287457    -2.5031256
H           4.0123788    -2.2374814    -1.1861282
H           5.5788821    -1.6256519    -1.7805592
C           5.8396027     0.0655342    -0.0350284
C           0.2499943    -1.2559189    -1.1639524
H          -0.3598301    -2.0433778    -0.7207678
H           0.5269784    -1.5289492    -2.1875018
H          -0.3209703    -0.3235311    -1.2183925
O           1.8016575    -1.6542886     0.6623087
O           6.8555898    -0.5167137    -0.4040808
21
237_C8H9NO3_0-1-8-6 (-75,) energy =    -590.7043551
C           1.3621493    -0.9504919    -0.2342533
O           2.2765628    -0.1317813    -0.8871457
C           5.7491230     1.1394715     0.9676494
H           6.6913258     1.4455497     1.4068745
C           4.5578087     1.6880364     1.3453884
H           4.5337570     2.4589479     2.1110612
C           3.3362264     1.2724122     0.7525003
H           2.3807584     1.6964657     1.0309949
C           3.3957997     0.2969221    -0.1983249
N           4.5677191    -0.2779591    -0.5986654
C           4.5731898    -1.3341753    -1.6154216
H           4.0769314    -0.9907348    -2.5258038
H           4.0674025    -2.2294402    -1.2408261
H           5.6193805    -1.5609289    -1.8136161
C           5.8345945     0.1082784    -0.0432501
C           0.1993561    -1.2323854    -1.1484063
H          -0.5248155    -1.8596298    -0.6282383
H           0.5490799    -1.7392474    -2.0538427
H          -0.2699049    -0.2939731    -1.4603426
O           1.5209426    -1.3542409     0.8849848
O           6.8672593    -0.4294310    -0.4336957
21
237_C8H9NO3_0-1-8-6 (-60,) energy =    -590.7043645
C           1.2747422    -0.8457477    -0.1535017
O           2.3117077    -0.2178631    -0.8347818
C           5.7322910     1.2158181     0.9944533
H           6.6654951     1.5640846     1.4212863
C           4.5198845     1.6885776     1.4067953
H           4.4702795     2.4404889     2.1899225
C           3.3098622     1.2212899     0.8300094
H           2.3410058     1.5824768     1.1455185
C           3.4021980     0.2687389    -0.1425517
N           4.5969470    -0.2311891    -0.5787718
C           4.6403543    -1.2529975    -1.6297638
H           4.1428832    -0.8945120    -2.5339554
H           4.1542574    -2.1729001    -1.2918315
H           5.6943422    -1.4422425    -1.8257083
C           5.8524362     0.2154557    -0.0425513
C           0.2046876    -1.2370413    -1.1382823
H          -0.6096069    -1.7310600    -0.6079559
H           0.6183807    -1.9084958    -1.8976538
H          -0.1697002    -0.3485687    -1.6570698
O           1.2710809    -1.0298924     1.0324205
O           6.9049052    -0.2519463    -0.4695461
21
237_C8H9NO3_0-1-8-6 (-45,) energy =    -590.7044800
C           1.1830802    -0.7373433    -0.1473033
O           2.3353800    -0.3193389    -0.7988688
C           5.7414007     1.2133829     0.9767153
H           6.6743863     1.5848580     1.3839735
C           4.5259125     1.6390772     1.4286891
H           4.4732483     2.3770534     2.2248534
C           3.3137231     1.1432283     0.8806949
H           2.3475338     1.4667425     1.2374018
C           3.4081333     0.2097652    -0.1120946
N           4.6079216    -0.2428262    -0.5889256
C           4.6565989    -1.2421504    -1.6613377
H           4.1760226    -0.8600925    -2.5656126
H           4.1549725    -2.1626622    -1.3509819
H           5.7116052    -1.4346936    -1.8479880
C           5.8630709     0.2348728    -0.0797899
C           0.1993005    -1.2451335    -1.1688182
H          -0.7073558    -1.5746993    -0.6611249
H           0.6350668    -2.0759062    -1.7332171
H          -0.0395723    -0.4525669    -1.8854738
O           1.0266020    -0.6888883     1.0420966
O           6.9171806    -0.1918882    -0.5440152
21
237_C8H9NO3_0-1-8-6 (-30,) energy =    -590.7045298
C           1.1142359    -0.6433797    -0.1540812
O           2.3522512    -0.4155230    -0.7308453
C           5.7538677     1.2102097     0.9712085
H           6.6879173     1.6023308     1.3560256
C           4.5413285     1.5915103     1.4672462
H           4.4920809     2.3145306     2.2773292
C           3.3243701     1.0700430     0.9534443
H           2.3644223     1.3581986     1.3501573
C           3.4127588     0.1583888    -0.0620209
N           4.6118991    -0.2485002    -0.5848259
C           4.6577796    -1.2247965    -1.6786957
H           4.1405497    -0.8391887    -2.5609869
H           4.1909645    -2.1650325    -1.3736672
H           5.7120167    -1.3824380    -1.8989197
C           5.8689036     0.2531776    -0.1048549
C           0.2105236    -1.2786452    -1.1790017
H          -0.7656752    -1.4628778    -0.7301084
H           0.6426845    -2.2198537    -1.5339178
H           0.1046229    -0.6189364    -2.0464534
O           0.8294820    -0.3709330     0.9810879
O           6.9195304    -0.1376504    -0.6073716
21
237_C8H9NO3_0-1-8-6 (-15,) energy =    -590.7045429
C           1.0771290    -0.5521799    -0.1908505
O           2.3734614    -0.4960982    -0.6658641
C           5.7725106     1.2085583     0.9667780
H           6.7078086     1.6161422     1.3320154
C           4.5658297     1.5489423     1.5039514
H           4.5222114     2.2544375     2.3297362
C           3.3457396     1.0077537     1.0175010
H           2.3922595     1.2664415     1.4461067
C           3.4251394     0.1202029    -0.0213580
N           4.6199987    -0.2455321    -0.5863258
C           4.6615025    -1.1984340    -1.7010800
H           4.1078662    -0.8104602    -2.5599348
H           4.2305131    -2.1576756    -1.4028847
H           5.7128978    -1.3206530    -1.9546163
C           5.8780062     0.2752151    -0.1304675
C           0.2301927    -1.3151627    -1.1771367
H          -0.7937737    -1.3637510    -0.8061870
H           0.6264329    -2.3265215    -1.3141645
H           0.2505132    -0.8195747    -2.1532709
O           0.7014024    -0.0658361     0.8427507
O           6.9228209    -0.0817934    -0.6690849
21
237_C8H9NO3_0-1-8-6 (0,) energy =    -590.7045503
C           1.0531832    -0.4713090    -0.2445483
O           2.3825572    -0.5746163    -0.6033727
C           5.7745548     1.2058020     0.9622663
H           6.7085737     1.6294863     1.3121106
C           4.5741748     1.5050626     1.5364792
H           4.5348115     2.1922658     2.3777827
C           3.3546137     0.9446079     1.0705078
H           2.4051912     1.1782324     1.5212593
C           3.4283236     0.0819048     0.0101291
N           4.6174995    -0.2432619    -0.5914060
C           4.6519706    -1.1730844    -1.7257863
H           4.0689335    -0.7804639    -2.5629650
H           4.2491094    -2.1471275    -1.4368810
H           5.6990474    -1.2663640    -2.0076975
C           5.8742433     0.2986070    -0.1571739
C           0.2334576    -1.3432400    -1.1612958
H          -0.8173775    -1.2666796    -0.8813428
H           0.5644011    -2.3843484    -1.0886495
H           0.3665978    -1.0280560    -2.2013403
O           0.6314680     0.2073498     0.6545409
O           6.9132083    -0.0209386    -0.7296782
21
237_C8H9NO3_0-1-8-6 (15,) energy =    -590.7045426
C           1.0577425    -0.4358557    -0.2970246
O           2.4002566    -0.6920928    -0.5029993
C           5.7653117     1.2572598     0.9114598
H           6.6929885     1.7191010     1.2283212
C           4.5679552     1.5398317     1.5005699
H           4.5249263     2.2526551     2.3200642
C           3.3574823     0.9285819     1.0772096
H           2.4089333     1.1562154     1.5334921
C           3.4361522     0.0364114     0.0423008
N           4.6216928    -0.2714056    -0.5744531
C           4.6627941    -1.2371821    -1.6780123
H           4.3153715    -2.2183197    -1.3441966
H           5.7035969    -1.2930365    -1.9914811
H           4.0354160    -0.8999248    -2.5070925
C           5.8706480     0.3168200    -0.1796819
C           0.2447714    -1.4478648    -1.0631846
H          -0.8153089    -1.2457746    -0.9085723
H           0.4853684    -2.4599073    -0.7214680
H           0.4834913    -1.3963076    -2.1303752
O           0.6247669     0.4539054     0.3860636
O           6.9077946     0.0064991    -0.7604590
21
237_C8H9NO3_0-1-8-6 (30,) energy =    -590.7045299
C           1.0789130    -0.3813674    -0.3861069
O           2.4083071    -0.7661410    -0.4298702
C           5.7491009     1.2671345     0.9176694
H           6.6693864     1.7514670     1.2222813
C           4.5584541     1.5015945     1.5414360
H           4.5134792     2.1958688     2.3765278
C           3.3594662     0.8597351     1.1323516
H           2.4139567     1.0510072     1.6133335
C           3.4409440    -0.0054283     0.0764406
N           4.6181447    -0.2651550    -0.5743725
C           4.6587719    -1.2061064    -1.6989929
H           4.3474183    -2.2034615    -1.3780718
H           5.6924242    -1.2254694    -2.0395124
H           4.0018326    -0.8691475    -2.5051582
C           5.8577889     0.3528240    -0.1955600
C           0.2406781    -1.4569338    -1.0273828
H          -0.8069700    -1.1565573    -1.0024986
H           0.3708415    -2.4031466    -0.4919262
H           0.5590113    -1.6195046    -2.0621604
O           0.6814089     0.6474528     0.0908017
O           6.8899152     0.0860842    -0.8060115
21
237_C8H9NO3_0-1-8-6 (45,) energy =    -590.7044803
C           1.1293212    -0.3516677    -0.4870473
O           2.4179603    -0.8475125    -0.3435213
C           5.7366400     1.2700743     0.9233954
H           6.6491275     1.7787799     1.2113188
C           4.5569963     1.4553527     1.5844707
H           4.5132036     2.1335528     2.4326375
C           3.3719718     0.7776237     1.1946458
H           2.4321435     0.9242730     1.7051771
C           3.4523768    -0.0616052     0.1198771
N           4.6158387    -0.2705149    -0.5688957
C           4.6522310    -1.1871167    -1.7132758
H           4.3790456    -2.1993675    -1.4045049
H           5.6759489    -1.1692993    -2.0829158
H           3.9640163    -0.8531016    -2.4943650
C           5.8453645     0.3787203    -0.2089286
C           0.2338213    -1.4529556    -0.9914363
H          -0.7783338    -1.0661195    -1.1109856
H           0.2339874    -2.2890927    -0.2844893
H           0.6045611    -1.8338639    -1.9485154
O           0.8113989     0.7793866    -0.2397611
O           6.8692689     0.1545632    -0.8493581
21
237_C8H9NO3_0-1-8-6 (60,) energy =    -590.7043646
C           1.2014466    -0.3287155    -0.6074340
O           2.4171247    -0.8989702    -0.2459956
C           5.7254948     1.2858873     0.9299588
H           6.6314304     1.8166496     1.1981329
C           4.5624416     1.4273032     1.6305070
H           4.5257534     2.0917062     2.4897760
C           3.3885356     0.7182325     1.2639691
H           2.4583888     0.8195571     1.8054916
C           3.4608767    -0.0994115     0.1740223
N           4.6056404    -0.2637453    -0.5540889
C           4.6301042    -1.1577075    -1.7163264
H           4.3371401    -2.1698876    -1.4278516
H           5.6546137    -1.1491183    -2.0843007
H           3.9526537    -0.7947198    -2.4947916
C           5.8263587     0.4157941    -0.2203913
C           0.2360838    -1.4228183    -0.9801644
H          -0.7171652    -0.9793248    -1.2682717
H           0.0934873    -2.1009053    -0.1324658
H           0.6387166    -2.0152961    -1.8080877
O           0.9940611     0.8533639    -0.6106638
O           6.8365264     0.2325470    -0.8945293
21
237_C8H9NO3_0-1-8-6 (75,) energy =    -590.7043575
C           1.2799133    -0.3751162    -0.7312810
O           2.4030170    -0.9633024    -0.1612500
C           5.7332620     1.2710239     0.8542478
H           6.6400322     1.8189343     1.0822010
C           4.6079341     1.3736104     1.6197979
H           4.6029216     2.0225928     2.4915180
C           3.4329777     0.6421057     1.3020244
H           2.5314386     0.7026241     1.8969178
C           3.4665352    -0.1564359     0.1974432
N           4.5714102    -0.2810986    -0.5949336
C           4.5474159    -1.1443072    -1.7797483
H           4.2644150    -2.1629977    -1.5051350
H           5.5557638    -1.1263718    -2.1897055
H           3.8414654    -0.7580341    -2.5213309
C           5.7910624     0.4247490    -0.3175923
C           0.2329080    -1.4297912    -0.9733748
H          -0.6514871    -0.9662228    -1.4107871
H          -0.0275219    -1.9238493    -0.0318958
H           0.6238158    -2.1984933    -1.6480644
O           1.2035097     0.7964473    -0.9815324
O           6.7655932     0.2812148    -1.0508228
21
237_C8H9NO3_0-1-8-6 (90,) energy =    -590.7046632
C           1.4000471    -0.4436891    -0.8684740
O           2.4090931    -0.9811177    -0.0817788
C           5.7661055     1.2623856     0.8264982
H           6.6762075     1.8142498     1.0303888
C           4.6700883     1.3404630     1.6358154
H           4.6923987     1.9727552     2.5194545
C           3.4901187     0.6044723     1.3464039
H           2.6103977     0.6407159     1.9753351
C           3.4912242    -0.1755690     0.2285450
N           4.5665166    -0.2782323    -0.6051776
C           4.5065864    -1.1191948    -1.8042529
H           4.2226621    -2.1403856    -1.5395651
H           5.5043976    -1.1024225    -2.2392439
H           3.7871613    -0.7096985    -2.5196597
C           5.7871672     0.4387366    -0.3631360
C           0.2809984    -1.4413009    -1.0066952
H          -0.5083770    -1.0148994    -1.6259342
H          -0.1144480    -1.7008773    -0.0194634
H           0.6554207    -2.3644624    -1.4610404
O           1.4601116     0.6543690    -1.3523145
O           6.7340090     0.3206068    -1.1357776
21
237_C8H9NO3_0-1-8-6 (105,) energy =    -590.7045084
C           1.4236621    -0.4955465    -0.9170926
O           2.3361092    -0.9288075     0.0329101
C           5.7585554     1.2598126     0.8372352
H           6.6808510     1.7994602     1.0176896
C           4.7010243     1.3151476     1.6977288
H           4.7665216     1.9166337     2.6005295
C           3.5044632     0.5971004     1.4344427
H           2.6496125     0.6226040     2.0972797
C           3.4460748    -0.1409999     0.2891697
N           4.4905502    -0.2386500    -0.5843926
C           4.4048652    -1.0783007    -1.7828624
H           4.0190716    -2.0662200    -1.5216458
H           5.4160242    -1.1552066    -2.1785306
H           3.7566642    -0.6109381    -2.5292577
C           5.7216666     0.4721608    -0.3757714
C           0.2863178    -1.4772528    -1.0114686
H          -0.4365718    -1.1222943    -1.7461887
H          -0.1944448    -1.5905739    -0.0346269
H           0.6644861    -2.4620835    -1.3050272
O           1.5626223     0.5186224    -1.5470221
O           6.6342120     0.3702791    -1.1907792
21
237_C8H9NO3_0-1-8-6 (120,) energy =    -590.7030863
C           1.4628405    -0.5309993    -0.9923599
O           2.2843305    -0.8195295     0.0859312
C           5.7905478     1.2599090     0.8347322
H           6.7286194     1.7749643     1.0053142
C           4.7641551     1.2943011     1.7333865
H           4.8702554     1.8534603     2.6592466
C           3.5465819     0.6120604     1.4781022
H           2.7086146     0.6375106     2.1621545
C           3.4277394    -0.0696776     0.3009207
N           4.4525382    -0.1715489    -0.5974319
C           4.3680149    -1.0175335    -1.7914119
H           3.8169956    -1.9305896    -1.5577569
H           5.3900426    -1.2530312    -2.0833606
H           3.8747044    -0.4836312    -2.6071048
C           5.6978708     0.5211139    -0.4042900
C           0.3276878    -1.5190353    -1.0389708
H          -0.3416205    -1.2602577    -1.8596122
H          -0.2181781    -1.5100904    -0.0902735
H           0.7173556    -2.5326010    -1.1811880
O           1.6563545     0.3873503    -1.7433558
O           6.5797788     0.4311755    -1.2537436
21
237_C8H9NO3_0-1-8-6 (135,) energy =    -590.7000594
C           1.4854982    -0.5649237    -1.0556871
O           2.2308060    -0.6760047     0.1064782
C           5.8444162     1.2284742     0.8296858
H           6.8038899     1.7027577     0.9990534
C           4.8412078     1.2542234     1.7546879
H           4.9872450     1.7656880     2.7024502
C           3.5962638     0.6274931     1.4981659
H           2.7696134     0.6674253     2.1952471
C           3.4166781     0.0103650     0.2906491
N           4.4280795    -0.1118457    -0.6226998
C           4.3464918    -0.9808977    -1.8009735
H           3.7364474    -1.8566927    -1.5710900
H           5.3652630    -1.2823440    -2.0398298
H           3.9209008    -0.4459749    -2.6518799
C           5.6991257     0.5398926    -0.4311394
C           0.3721087    -1.5786123    -1.0334222
H          -0.2669597    -1.4299886    -1.9040379
H          -0.2123636    -1.4770499    -0.1137446
H           0.7867628    -2.5924091    -1.0457631
O           1.7054154     0.2484563    -1.9128636
O           6.5610062     0.4432486    -1.3000992
21
237_C8H9NO3_0-1-8-6 (150,) energy =    -590.6953937
C           1.4762084    -0.5845817    -1.1241449
O           2.1608289    -0.4951158     0.0753669
C           5.8847521     1.1706027     0.8404805
H           6.8652955     1.5931282     1.0250761
C           4.8861534     1.1991171     1.7706971
H           5.0566933     1.6604349     2.7398799
C           3.6145936     0.6431014     1.4917440
H           2.7876053     0.7084131     2.1865962
C           3.3968671     0.0923241     0.2558612
N           4.4065880    -0.0590720    -0.6565343
C           4.3291724    -0.9436043    -1.8254542
H           3.7022647    -1.8074039    -1.5948463
H           5.3476092    -1.2653196    -2.0382434
H           3.9275251    -0.4192467    -2.6931574
C           5.7058208     0.5374556    -0.4430461
C           0.3808537    -1.6100938    -0.9929534
H          -0.2375253    -1.5927088    -1.8906696
H          -0.2291115    -1.4003701    -0.1089071
H           0.8145197    -2.6073580    -0.8602824
O           1.7083181     0.1018380    -2.0830701
O           6.5625490     0.4300281    -1.3155857
21
237_C8H9NO3_0-1-8-6 (165,) energy =    -590.6899741
C           1.4491105    -0.6185719    -1.1957500
O           2.1020513    -0.3143801    -0.0143814
C           5.8912127     1.1138515     0.9038506
H           6.8820710     1.4879573     1.1321176
C           4.8675290     1.1449363     1.8065462
H           5.0268906     1.5599409     2.7983328
C           3.5851863     0.6536755     1.4699208
H           2.7403755     0.7315887     2.1415406
C           3.3769395     0.1612099     0.2055251
N           4.4053788     0.0026267    -0.6842975
C           4.3441656    -0.8535207    -1.8772554
H           3.7461176    -1.7428188    -1.6671798
H           5.3715924    -1.1366298    -2.1002454
H           3.9188670    -0.3222775    -2.7282062
C           5.7244773     0.5388245    -0.4064905
C           0.3670986    -1.6277238    -0.9115163
H          -0.2323177    -1.7759724    -1.8101195
H          -0.2650726    -1.2800600    -0.0885858
H           0.8130481    -2.5785907    -0.5998698
O           1.6739573    -0.0893888    -2.2508537
O           6.6028098     0.4298242    -1.2567517
21
237_C8H9NO3_0-1-8-6 (180,) energy =    -590.6854189
C           1.5329905    -1.4022702    -0.6519203
O           2.1139118    -0.2838997    -0.0783459
C           5.8589729     1.3254249     0.7078532
H           6.8385283     1.7367298     0.9199542
C           4.7025290     1.9578535     1.0630711
H           4.7398088     2.9118123     1.5825766
C           3.4432533     1.3878852     0.7718817
H           2.5136355     1.8424328     1.0872865
C           3.3960802     0.1694697     0.1378815
N           4.5272165    -0.4570176    -0.3080442
C           4.5319443    -1.6076031    -1.2231202
H           3.8533118    -1.4268535    -2.0595748
H           4.2345633    -2.5211009    -0.7109183
H           5.5552708    -1.6951658    -1.5831977
C           5.8468818     0.0727909    -0.0018255
C           0.2334784    -0.9929230    -1.2967956
H          -0.2948491    -1.8822889    -1.6415341
H           0.4298387    -0.3238136    -2.1416899
H          -0.3833810    -0.4405796    -0.5812620
O           1.9560491    -2.5223706    -0.5608138
O           6.8411146    -0.5392044    -0.3800840
