28
137_C13H13NO_14-13-23-25 (-165,) energy =    -633.1424874
C           6.2546347    -0.1477191     0.2732948
H           7.3064304     0.0284419     0.4899880
C           5.4635655    -0.8126798     1.2163365
H           5.9119802    -1.1988717     2.1272877
C           4.0946550    -0.8835497     1.0155554
H           3.4175047    -1.2827703     1.7639445
C           3.5265707    -0.3954454    -0.1682097
C           4.3592692     0.1282513    -1.1894833
C           5.7318385     0.3695542    -0.9140087
C           6.6031392     1.3052643    -1.7312553
H           7.0935782     2.0138622    -1.0542183
H           6.0205445     1.8853893    -2.4491007
H           7.3975899     0.7904373    -2.2825944
N           3.7484198     0.5066418    -2.4044083
C           2.3971910     0.7917249    -2.4056330
H           2.0345305     1.2322817    -3.3305938
C           1.5594003     0.4764732    -1.3888317
H           0.5063582     0.7291311    -1.4369186
C           2.0409402    -0.2963841    -0.2524017
O           1.2994375    -0.7797919     0.6057582
C           4.3282702    -1.1072622    -4.3764921
H           4.0108215    -1.1971727    -5.4118222
H           4.0767059    -1.9576891    -3.7489921
C           4.2893437     0.2578153    -3.7363023
H           4.0184913     1.0749331    -4.4029689
C           5.6127585    -0.3753458    -4.0344339
H           6.1847191    -0.8019780    -3.2199469
H           6.2123947     0.0635304    -4.8266541
28
137_C13H13NO_14-13-23-25 (-150,) energy =    -633.1475391
C           6.3113234    -0.0288608     0.3172080
H           7.3593691     0.1830989     0.5186039
C           5.5404659    -0.6589460     1.3003510
H           6.0001711    -0.9797840     2.2307545
C           4.1760538    -0.7816397     1.1037527
H           3.5097201    -1.1636726     1.8704882
C           3.5927675    -0.3743504    -0.1036927
C           4.4074305     0.1214822    -1.1547659
C           5.7773189     0.4045044    -0.8977463
C           6.6449363     1.2822823    -1.7794950
H           7.2938401     1.8940552    -1.1439891
H           6.0475191     1.9646451    -2.3894073
H           7.2970428     0.7190215    -2.4548940
N           3.7777237     0.4051290    -2.3838294
C           2.4152802     0.6201857    -2.4021571
H           2.0373984     0.9942994    -3.3494648
C           1.5877501     0.3148967    -1.3738229
H           0.5220350     0.4992833    -1.4456271
C           2.1049904    -0.3513415    -0.1889696
O           1.3871446    -0.8127654     0.7016179
C           4.2746653    -0.9250341    -4.5360346
H           4.0815095    -0.8107488    -5.5991327
H           3.7942743    -1.7834201    -4.0755570
C           4.3918868     0.3283036    -3.6998887
H           4.3309436     1.2726580    -4.2397609
C           5.6112342    -0.4998824    -3.9720527
H           6.0109837    -1.1051523    -3.1657644
H           6.3596227    -0.0832651    -4.6391463
28
137_C13H13NO_14-13-23-25 (-135,) energy =    -633.1516195
C           6.3087834     0.0458635     0.3640378
H           7.3541997     0.2708350     0.5639835
C           5.5378863    -0.5593734     1.3625254
H           5.9937252    -0.8417703     2.3071571
C           4.1800682    -0.7169436     1.1535788
H           3.5126841    -1.0957782     1.9208439
C           3.6018762    -0.3577205    -0.0719591
C           4.4149126     0.1326033    -1.1276753
C           5.7826577     0.4306794    -0.8700767
C           6.6689771     1.2570987    -1.7819431
H           7.4108150     1.7861179    -1.1753146
H           6.0995280     2.0135094    -2.3291523
H           7.2192968     0.6616472    -2.5169058
N           3.7911063     0.3697289    -2.3701304
C           2.4176607     0.4816708    -2.4246196
H           2.0386401     0.7994014    -3.3910238
C           1.5867595     0.1597376    -1.4043284
H           0.5130319     0.2618256    -1.5121617
C           2.1165648    -0.4089144    -0.1773092
O           1.4081977    -0.8610513     0.7260699
C           4.2050391    -0.7452724    -4.6310507
H           4.1086065    -0.4932263    -5.6834281
H           3.5603782    -1.5525012    -4.2961942
C           4.4618382     0.3837933    -3.6589667
H           4.5754312     1.3790098    -4.0868358
C           5.5502578    -0.6054674    -3.9644808
H           5.8049788    -1.3294893    -3.1971104
H           6.3917749    -0.2560300    -4.5546654
28
137_C13H13NO_14-13-23-25 (-120,) energy =    -633.1539257
C           6.3151367     0.1201644     0.3965349
H           7.3583974     0.3564804     0.5934097
C           5.5482092    -0.4713618     1.4065805
H           6.0044071    -0.7259228     2.3589186
C           4.1961744    -0.6611487     1.1927352
H           3.5323996    -1.0442136     1.9609519
C           3.6180016    -0.3386240    -0.0435537
C           4.4242232     0.1562856    -1.1018541
C           5.7900457     0.4705639    -0.8477333
C           6.6774188     1.2731606    -1.7794733
H           7.5167837     1.6844145    -1.2106768
H           6.1404263     2.1207249    -2.2175309
H           7.0979168     0.6877647    -2.6020553
N           3.8055840     0.3670846    -2.3530436
C           2.4292508     0.3762344    -2.4333802
H           2.0468589     0.6528147    -3.4100916
C           1.6010533     0.0294491    -1.4190602
H           0.5256442     0.0578837    -1.5519943
C           2.1380483    -0.4589431    -0.1626786
O           1.4391587    -0.9086786     0.7495495
C           4.1344439    -0.5996946    -4.6881616
H           4.1281908    -0.2509996    -5.7169495
H           3.3572651    -1.3198942    -4.4509455
C           4.5209655     0.3962508    -3.6176547
H           4.8018167     1.3901358    -3.9594511
C           5.4512343    -0.7338536    -3.9721731
H           5.5518476    -1.5392007    -3.2510937
H           6.3650171    -0.4864356    -4.5044158
28
137_C13H13NO_14-13-23-25 (-105,) energy =    -633.1541736
C           6.2971464     0.1863714     0.4240541
H           7.3370821     0.4285465     0.6302953
C           5.5231271    -0.4010176     1.4308455
H           5.9689555    -0.6405269     2.3919712
C           4.1789034    -0.6170298     1.1972224
H           3.5109330    -1.0117516     1.9557736
C           3.6143190    -0.3145628    -0.0505870
C           4.4237978     0.1960021    -1.0983996
C           5.7855809     0.5190702    -0.8306434
C           6.6886790     1.3031880    -1.7627696
H           7.5775670     1.6291436    -1.2147639
H           6.1934730     2.2064813    -2.1364397
H           7.0316289     0.7301211    -2.6290080
N           3.8204394     0.4075445    -2.3603414
C           2.4492527     0.3202787    -2.4730680
H           2.0711426     0.5800952    -3.4550374
C           1.6161367    -0.0611214    -1.4755213
H           0.5445762    -0.0913156    -1.6365677
C           2.1432374    -0.4955099    -0.1969331
O           1.4437809    -0.9549896     0.7100470
C           4.1101894    -0.4592216    -4.7529560
H           4.2175688    -0.0426192    -5.7503947
H           3.2240070    -1.0708347    -4.6173885
C           4.5875885     0.3920541    -3.5972503
H           5.0347663     1.3442288    -3.8658634
C           5.3440799    -0.8534282    -3.9907284
H           5.2671105    -1.7062866    -3.3230365
H           6.3182495    -0.7307230    -4.4561130
28
137_C13H13NO_14-13-23-25 (-90,) energy =    -633.1521701
C           6.3101436     0.2448915     0.4269056
H           7.3433622     0.5066765     0.6422049
C           5.5376815    -0.3506303     1.4289707
H           5.9763525    -0.5716070     2.3977847
C           4.2046490    -0.6070260     1.1759553
H           3.5373004    -1.0212594     1.9245152
C           3.6503396    -0.3275989    -0.0816433
C           4.4546563     0.2094920    -1.1206880
C           5.8081159     0.5568437    -0.8374502
C           6.7261900     1.3297068    -1.7645576
H           7.6101710     1.6548642    -1.2084177
H           6.2435028     2.2332315    -2.1540538
H           7.0788210     0.7425657    -2.6186137
N           3.8586584     0.4173180    -2.3926041
C           2.4981385     0.2340863    -2.5238913
H           2.1140874     0.4836440    -3.5051223
C           1.6691292    -0.1894797    -1.5405877
H           0.6038412    -0.2755899    -1.7220345
C           2.1919505    -0.5787852    -0.2477991
O           1.4998774    -1.0589001     0.6540717
C           4.1338104    -0.3274093    -4.8499680
H           4.3659010     0.1485709    -5.7984888
H           3.1664795    -0.8166313    -4.8277389
C           4.6661629     0.3513999    -3.6062137
H           5.2566447     1.2388360    -3.7942749
C           5.2442732    -0.9670048    -4.0667151
H           4.9932101    -1.8427425    -3.4753336
H           6.2534711    -0.9706406    -4.4704780
28
137_C13H13NO_14-13-23-25 (-75,) energy =    -633.1488866
C           6.3221716     0.3124302     0.4508660
H           7.3432358     0.6111555     0.6763076
C           5.5651123    -0.3218842     1.4400014
H           6.0044861    -0.5378290     2.4096359
C           4.2422498    -0.6184189     1.1756701
H           3.5839495    -1.0600601     1.9165664
C           3.6876041    -0.3441546    -0.0826217
C           4.4797259     0.2272501    -1.1121118
C           5.8163936     0.6205411    -0.8133867
C           6.7118002     1.4400909    -1.7218266
H           7.5237006     1.8753855    -1.1318825
H           6.1712392     2.2720271    -2.1864471
H           7.1777057     0.8500589    -2.5199398
N           3.8880965     0.4304238    -2.3911898
C           2.5298943     0.2223763    -2.5215487
H           2.1370500     0.4797442    -3.4966111
C           1.7076017    -0.2250276    -1.5436412
H           0.6430633    -0.3214989    -1.7246185
C           2.2372338    -0.6313899    -0.2585352
O           1.5552478    -1.1481879     0.6301649
C           4.1338001    -0.2260007    -4.9013767
H           4.5243733     0.2525957    -5.7950113
H           3.0920426    -0.5122637    -4.9828714
C           4.7122985     0.2484302    -3.5861383
H           5.4791593     0.9986775    -3.6992400
C           5.0344410    -1.1332246    -4.1077922
H           4.5616723    -1.9668888    -3.5960503
H           6.0449411    -1.3326715    -4.4548595
28
137_C13H13NO_14-13-23-25 (-60,) energy =    -633.1474431
C           6.0407541     0.5924418     0.5893491
H           7.0635560     0.8246797     0.8778773
C           5.0506246     0.5416681     1.5756028
H           5.2963288     0.7713607     2.6083931
C           3.7794224     0.1312501     1.2211614
H           2.9853301    -0.0016021     1.9486496
C           3.4685354    -0.1544099    -0.1154646
C           4.4494631     0.0062873    -1.1300506
C           5.7913186     0.3093871    -0.7543218
C           6.9987767     0.2313600    -1.6734656
H           7.8815430    -0.0247934    -1.0796117
H           7.2267355     1.1770857    -2.1822078
H           6.8862996    -0.5376340    -2.4417377
N           4.0500958    -0.1984181    -2.4696870
C           2.8448909    -0.8085382    -2.7234126
H           2.6579349    -1.0411762    -3.7647967
C           1.9171775    -1.1014472    -1.7795550
H           0.9912607    -1.5930078    -2.0551130
C           2.1129959    -0.6995646    -0.4010951
O           1.2538467    -0.8229872     0.4764678
C           4.1289774     0.7362793    -4.9057638
H           4.3708863     1.6957145    -5.3548954
H           3.1177318     0.4043246    -5.1161274
C           4.7628310     0.4420066    -3.5705397
H           5.4045090     1.2275501    -3.2022980
C           5.2199980    -0.3076828    -4.7954452
H           4.9163508    -1.3486909    -4.8739633
H           6.2053943    -0.0990537    -5.2040132
28
137_C13H13NO_14-13-23-25 (-45,) energy =    -633.1467066
C           6.0203708     0.6409955     0.5866512
H           7.0318748     0.8944396     0.8965624
C           4.9981203     0.6273157     1.5411064
H           5.2080741     0.9082716     2.5690895
C           3.7435007     0.1835487     1.1670929
H           2.9292898     0.0723815     1.8757960
C           3.4789694    -0.1687220    -0.1636125
C           4.4893328    -0.0390086    -1.1527291
C           5.8156735     0.2919372    -0.7487885
C           7.0491619     0.1700103    -1.6264211
H           7.9116063    -0.0728128    -0.9979616
H           7.3037591     1.0951787    -2.1608604
H           6.9511679    -0.6268163    -2.3692993
N           4.1416714    -0.3193719    -2.4927877
C           2.9638850    -0.9802709    -2.7524735
H           2.8196730    -1.2680865    -3.7878131
C           2.0119396    -1.2474920    -1.8254664
H           1.1117044    -1.7846469    -2.1011736
C           2.1462869    -0.7589841    -0.4665820
O           1.2572291    -0.8521750     0.3842441
C           4.0512921     0.8744584    -4.7967010
H           4.3438263     1.8438134    -5.1910845
H           2.9853497     0.6767214    -4.8592669
C           4.8130746     0.3468977    -3.6054483
H           5.6049212     0.9880813    -3.2586844
C           4.9991162    -0.2964714    -4.9535754
H           4.5643237    -1.2791436    -5.1155983
H           5.9469097    -0.1493242    -5.4645844
28
137_C13H13NO_14-13-23-25 (-30,) energy =    -633.1458454
C           6.0104900     0.7168866     0.5756801
H           7.0037559     1.0059552     0.9120773
C           4.9454247     0.7588355     1.4807760
H           5.1044361     1.1149920     2.4945334
C           3.7132874     0.2745526     1.0826544
H           2.8679588     0.2049846     1.7595122
C           3.5149083    -0.1748651    -0.2301623
C           4.5684246    -0.1071703    -1.1780841
C           5.8699846     0.2693442    -0.7388260
C           7.1407237     0.1012873    -1.5506302
H           7.9809718    -0.0722622    -0.8711960
H           7.4012670     0.9859814    -2.1475152
H           7.0864031    -0.7572122    -2.2271707
N           4.2973579    -0.4999024    -2.5128715
C           3.1281973    -1.1799016    -2.7746027
H           3.0320481    -1.5408803    -3.7915005
C           2.1367037    -1.3881768    -1.8751102
H           1.2543096    -1.9539760    -2.1516581
C           2.2020039    -0.7990791    -0.5513071
O           1.2733491    -0.8367667     0.2600261
C           4.0887884     1.0491112    -4.5843697
H           4.4626429     2.0246560    -4.8831674
H           3.0083094     0.9935048    -4.4830456
C           4.9127136     0.2213121    -3.6271249
H           5.8626271     0.6460029    -3.3555027
C           4.7975090    -0.2003280    -5.0670845
H           4.1909594    -1.0559297    -5.3449857
H           5.6912638    -0.0955109    -5.6762022
28
137_C13H13NO_14-13-23-25 (-15,) energy =    -633.1463191
C           5.9714638     0.7729388     0.5307971
H           6.9482729     1.1082588     0.8720821
C           4.8841629     0.8379075     1.4070085
H           5.0095687     1.2524532     2.4031575
C           3.6722984     0.3084320     1.0048454
H           2.8094980     0.2625676     1.6613347
C           3.5180930    -0.2164885    -0.2857455
C           4.5953089    -0.1878234    -1.2076386
C           5.8737989     0.2500005    -0.7599630
C           7.1662068     0.0852593    -1.5350454
H           8.0050969     0.0374724    -0.8340059
H           7.3748496     0.9199506    -2.2171682
H           7.1784358    -0.8410985    -2.1185590
N           4.3743710    -0.6673199    -2.5289110
C           3.2050453    -1.3556405    -2.7831674
H           3.1475330    -1.7829416    -3.7762437
C           2.1904509    -1.5212387    -1.9020407
H           1.3193604    -2.1075874    -2.1718105
C           2.2183483    -0.8674760    -0.6079469
O           1.2696364    -0.8711953     0.1801980
C           4.2164036     1.1599297    -4.3744324
H           4.7413668     2.0797361    -4.6173308
H           3.1683127     1.2910382    -4.1193036
C           4.9631924     0.0704351    -3.6477394
H           6.0168004     0.2461308    -3.5106205
C           4.5792701    -0.1275084    -5.0900683
H           3.7647952    -0.7828454    -5.3756675
H           5.3957524    -0.1193260    -5.8066568
28
137_C13H13NO_14-13-23-25 (0,) energy =    -633.1484342
C           5.9221460     0.8314700     0.4839100
H           6.8832477     1.2200452     0.8124252
C           4.8412491     0.8531293     1.3697511
H           4.9564244     1.2800429     2.3618880
C           3.6490176     0.2773720     0.9762714
H           2.7881405     0.2103220     1.6333404
C           3.5080785    -0.2622985    -0.3101108
C           4.5817566    -0.2117108    -1.2369921
C           5.8409868     0.2950141    -0.8025530
C           7.1372740     0.2113490    -1.5846341
H           7.9803138     0.3574025    -0.9029720
H           7.2235682     0.9754086    -2.3664308
H           7.2701024    -0.7700844    -2.0529969
N           4.3691077    -0.7196343    -2.5501421
C           3.1894951    -1.3890936    -2.8072912
H           3.1344021    -1.8162470    -3.8003279
C           2.1743568    -1.5564579    -1.9276649
H           1.2987423    -2.1323981    -2.2049297
C           2.2128220    -0.9261832    -0.6245488
O           1.2730537    -0.9486439     0.1743768
C           4.4926910     1.2189462    -4.2850782
H           5.2030881     2.0007781    -4.5397333
H           3.5347568     1.5786091    -3.9198868
C           5.0163740    -0.0565629    -3.6808374
H           6.0908272    -0.1520641    -3.6569578
C           4.4661906    -0.0706323    -5.0830704
H           3.4893105    -0.4876072    -5.2981329
H           5.1879229    -0.2138752    -5.8819662
28
137_C13H13NO_14-13-23-25 (15,) energy =    -633.1515001
C           5.8803678     0.8510472     0.4890108
H           6.8296913     1.2816778     0.7984565
C           4.8159311     0.8309793     1.3953687
H           4.9328367     1.2650300     2.3841935
C           3.6388108     0.2122628     1.0236538
H           2.7912099     0.1180041     1.6944366
C           3.4948180    -0.3357158    -0.2591706
C           4.5521124    -0.2510462    -1.2028779
C           5.7983027     0.3090811    -0.7946533
C           7.0806638     0.2821875    -1.6038719
H           7.9187741     0.5657161    -0.9607630
H           7.0757000     0.9745635    -2.4521396
H           7.2985630    -0.7205571    -1.9885173
N           4.3320507    -0.7718735    -2.5061259
C           3.1609832    -1.4562145    -2.7568391
H           3.1020725    -1.8748537    -3.7536033
C           2.1596451    -1.6439716    -1.8650834
H           1.2866954    -2.2263971    -2.1369597
C           2.2123560    -1.0332546    -0.5536657
O           1.2919410    -1.0919762     0.2662031
C           4.7140036     1.1775397    -4.1732607
H           5.5413842     1.8153483    -4.4725753
H           3.8834597     1.7012874    -3.7088659
C           5.0289071    -0.1995816    -3.6533041
H           6.0661352    -0.5023982    -3.7158355
C           4.3681049    -0.0433155    -4.9987728
H           3.3135409    -0.2650910    -5.1186235
H           4.9726937    -0.2829125    -5.8685830
28
137_C13H13NO_14-13-23-25 (30,) energy =    -633.1537743
C           5.8415173     0.9010143     0.4492891
H           6.7855407     1.3446069     0.7569309
C           4.7719901     0.8826330     1.3509079
H           4.8785555     1.3352020     2.3325893
C           3.6061429     0.2368137     0.9881978
H           2.7609136     0.1363715     1.6611398
C           3.4742116    -0.3351563    -0.2856066
C           4.5309954    -0.2393766    -1.2279759
C           5.7705307     0.3370444    -0.8249851
C           7.0543273     0.2863891    -1.6303227
H           7.8923212     0.5832931    -0.9929955
H           7.0545412     0.9512447    -2.4990908
H           7.2666267    -0.7280454    -1.9864608
N           4.3176263    -0.7691864    -2.5236994
C           3.1847531    -1.5174132    -2.7639457
H           3.1431408    -1.9452321    -3.7586088
C           2.1906977    -1.7256457    -1.8679203
H           1.3395526    -2.3450426    -2.1268044
C           2.2161246    -1.0794010    -0.5712195
O           1.2932033    -1.1482724     0.2451323
C           4.8686682     1.1743516    -4.1178819
H           5.7487952     1.7066344    -4.4680655
H           4.1678006     1.7814895    -3.5527084
C           5.0340787    -0.2595575    -3.6845190
H           6.0172956    -0.6965070    -3.8266794
C           4.2901006     0.0632263    -4.9576792
H           3.2091635    -0.0296265    -4.9753950
H           4.7763475    -0.2005693    -5.8923961
28
137_C13H13NO_14-13-23-25 (45,) energy =    -633.1542869
C           5.8015524     0.9498301     0.4151171
H           6.7453618     1.3990839     0.7155203
C           4.7327728     0.9424625     1.3184835
H           4.8380434     1.4142599     2.2912134
C           3.5733236     0.2742927     0.9743947
H           2.7353204     0.1712862     1.6560108
C           3.4427179    -0.3230492    -0.2878432
C           4.4914208    -0.2216345    -1.2386021
C           5.7308196     0.3623081    -0.8483154
C           7.0134831     0.2795412    -1.6528228
H           7.8615081     0.5206110    -1.0049938
H           7.0470998     0.9665662    -2.5029796
H           7.1812549    -0.7321056    -2.0379571
N           4.2685101    -0.7605310    -2.5250072
C           3.1814963    -1.5824320    -2.7334889
H           3.1484401    -2.0265306    -3.7222701
C           2.2053359    -1.8091737    -1.8220705
H           1.3797775    -2.4723068    -2.0538713
C           2.2083451    -1.1149329    -0.5484102
O           1.2880750    -1.1868749     0.2706350
C           4.9769126     1.1471391    -4.0724690
H           5.8868445     1.5696354    -4.4891308
H           4.4279081     1.8156437    -3.4163805
C           4.9844203    -0.3171224    -3.7103730
H           5.8883134    -0.8772805    -3.9361395
C           4.1828721     0.1734421    -4.8963625
H           3.1014994     0.2017934    -4.8044894
H           4.5431852    -0.0944066    -5.8855733
28
137_C13H13NO_14-13-23-25 (60,) energy =    -633.1527630
C           5.7906556     1.0110408     0.3718143
H           6.7327164     1.4707961     0.6623440
C           4.7246207     1.0106483     1.2780775
H           4.8269876     1.5023910     2.2411835
C           3.5750276     0.3146108     0.9543213
H           2.7455837     0.2058086     1.6455042
C           3.4480648    -0.3097598    -0.2946580
C           4.4863757    -0.2002557    -1.2570258
C           5.7221482     0.3985422    -0.8802675
C           7.0059707     0.3041639    -1.6822384
H           7.8592345     0.4091923    -1.0050095
H           7.1041277     1.0787344    -2.4486965
H           7.1059248    -0.6657998    -2.1781344
N           4.2514784    -0.7552895    -2.5325778
C           3.2211152    -1.6568526    -2.6968042
H           3.1988592    -2.1275151    -3.6744032
C           2.2685122    -1.9042220    -1.7660673
H           1.4782057    -2.6196809    -1.9622169
C           2.2426008    -1.1547828    -0.5229359
O           1.3260902    -1.2296559     0.2998672
C           5.1204454     1.0996478    -4.0512750
H           6.0442832     1.4047612    -4.5338111
H           4.7370923     1.8080916    -3.3236114
C           4.9470217    -0.3676180    -3.7478838
H           5.7404416    -1.0429685    -4.0613749
C           4.1292003     0.2992139    -4.8388549
H           3.0736894     0.4586511    -4.6399234
H           4.3615097     0.0428046    -5.8688471
28
137_C13H13NO_14-13-23-25 (75,) energy =    -633.1491083
C           5.7289191     1.0571272     0.3013906
H           6.6628690     1.5297885     0.5981146
C           4.6493876     1.0625786     1.1911367
H           4.7299397     1.5780064     2.1438780
C           3.5191889     0.3312405     0.8725338
H           2.6892566     0.2127043     1.5616495
C           3.4199433    -0.3229186    -0.3629853
C           4.4612875    -0.1994459    -1.3207394
C           5.6864180     0.4146426    -0.9374374
C           6.9876665     0.2906923    -1.7073861
H           7.8198902     0.2628474    -0.9965196
H           7.1760616     1.1258331    -2.3895498
H           7.0304854    -0.6308306    -2.2936389
N           4.2402284    -0.7764097    -2.5882317
C           3.2928653    -1.7710660    -2.7145104
H           3.3078571    -2.2777160    -3.6749122
C           2.3563286    -2.0481514    -1.7756732
H           1.6253527    -2.8321033    -1.9367769
C           2.2615883    -1.2365794    -0.5736257
O           1.3351351    -1.3229526     0.2363692
C           5.2372573     1.0642793    -4.0545450
H           6.1571249     1.2753525    -4.5917050
H           5.0109837     1.7668282    -3.2593527
C           4.8867752    -0.3862886    -3.8296314
H           5.5564183    -1.1360502    -4.2464465
C           4.0880372     0.4702440    -4.8015105
H           3.0837269     0.7467960    -4.4945170
H           4.1962136     0.2650934    -5.8633519
28
137_C13H13NO_14-13-23-25 (90,) energy =    -633.1434687
C           5.6755457     1.1271645     0.2640280
H           6.6029284     1.6065462     0.5710563
C           4.5691253     1.1682053     1.1193572
H           4.6207773     1.7247644     2.0507687
C           3.4531128     0.4100311     0.8071598
H           2.6129574     0.3054810     1.4862734
C           3.3900672    -0.2952082    -0.4017766
C           4.4489205    -0.1893830    -1.3405614
C           5.6665752     0.4299254    -0.9459936
C           6.9905214     0.2255913    -1.6590381
H           7.7718061     0.0511082    -0.9113532
H           7.3072338     1.0870817    -2.2564417
H           6.9677257    -0.6445666    -2.3189455
N           4.2678605    -0.8203517    -2.5886701
C           3.3954858    -1.8868175    -2.6668843
H           3.4575229    -2.4482401    -3.5952019
C           2.4600878    -2.1634674    -1.7260651
H           1.7901538    -3.0081092    -1.8385711
C           2.2777879    -1.2702911    -0.5913602
O           1.3271468    -1.3454482     0.1904544
C           5.3658977     1.0091559    -4.0460131
H           6.2347384     1.1076972    -4.6906222
H           5.3638438     1.6772247    -3.1932497
C           4.7894439    -0.3751242    -3.8727706
H           5.2565844    -1.1778585    -4.4384772
C           4.0379234     0.6953238    -4.6525371
H           3.1564760     1.1121350    -4.1736617
H           3.9519663     0.5762518    -5.7297014
28
137_C13H13NO_14-13-23-25 (105,) energy =    -633.1374019
C           5.5733905     1.2165085     0.1949739
H           6.4736384     1.7407583     0.5098022
C           4.4305010     1.2735713     0.9990646
H           4.4260428     1.8873635     1.8953868
C           3.3499236     0.4608367     0.6925507
H           2.4894148     0.3669009     1.3474169
C           3.3567169    -0.3120712    -0.4749901
C           4.4487118    -0.2256019    -1.3742442
C           5.6328449     0.4422279    -0.9668861
C           6.9951539     0.1871701    -1.5868811
H           7.6536213    -0.2391262    -0.8202926
H           7.4804336     1.1016412    -1.9468561
H           6.9507215    -0.5228103    -2.4131245
N           4.3545203    -0.9302377    -2.5971500
C           3.5205717    -2.0324081    -2.6451183
H           3.6301759    -2.6409582    -3.5391479
C           2.5713404    -2.3014666    -1.7163437
H           1.9490936    -3.1854239    -1.7968687
C           2.2965739    -1.3477442    -0.6499508
O           1.3166715    -1.4184000     0.0941503
C           5.4798545     0.8621390    -4.1681449
H           6.1477415     0.8351756    -5.0253958
H           5.8544333     1.4361969    -3.3327995
C           4.6415307    -0.3663682    -3.9167724
H           4.7452204    -1.1626142    -4.6478319
C           3.9968646     0.9216235    -4.3917262
H           3.4141691     1.4704228    -3.6570231
H           3.5964801     0.9596766    -5.4016822
28
137_C13H13NO_14-13-23-25 (120,) energy =    -633.1326844
C           5.4889948     1.2765348     0.1579434
H           6.3679569     1.8361459     0.4718542
C           4.3330698     1.3214206     0.9416930
H           4.2956357     1.9569589     1.8219662
C           3.2805116     0.4721912     0.6359751
H           2.4099377     0.3717509     1.2763730
C           3.3302584    -0.3275654    -0.5116118
C           4.4367337    -0.2408255    -1.3925230
C           5.5896669     0.4743227    -0.9833408
C           6.9693284     0.2554007    -1.5747912
H           7.6444192    -0.0719957    -0.7749492
H           7.4062938     1.1684941    -1.9959246
H           6.9717708    -0.5192586    -2.3424810
N           4.3899172    -0.9726567    -2.6104217
C           3.5457813    -2.0743762    -2.6544342
H           3.6714944    -2.6980448    -3.5356217
C           2.5901278    -2.3446105    -1.7352067
H           1.9742918    -3.2328946    -1.8187547
C           2.2903300    -1.3833560    -0.6832411
O           1.3014744    -1.4583383     0.0476756
C           5.5585693     0.6500060    -4.4053278
H           5.9295224     0.5068564    -5.4173397
H           6.2925355     1.0551728    -3.7268162
C           4.5184634    -0.3348859    -3.9344932
H           4.2213647    -1.0500260    -4.6936668
C           4.1292827     1.0968815    -4.2067802
H           3.9391283     1.7256431    -3.3419806
H           3.4964245     1.3110143    -5.0641243
28
137_C13H13NO_14-13-23-25 (135,) energy =    -633.1323275
C           5.4072231     1.2947328     0.2434367
H           6.2584491     1.9048803     0.5378825
C           4.2862854     1.2392582     1.0740456
H           4.2461929     1.8351772     1.9813622
C           3.2717986     0.3515775     0.7609052
H           2.4204051     0.1872443     1.4134891
C           3.3259193    -0.4044765    -0.4168963
C           4.4020495    -0.2443990    -1.3284322
C           5.5105338     0.5488119    -0.9343761
C           6.8550517     0.5357658    -1.6292277
H           7.6491196     0.5926135    -0.8775420
H           6.9987182     1.3886440    -2.3025534
H           7.0049879    -0.3850537    -2.1976699
N           4.3704576    -0.9607948    -2.5633526
C           3.4775710    -2.0246385    -2.6427483
H           3.5772197    -2.6099252    -3.5526562
C           2.5345422    -2.3363376    -1.7267948
H           1.8946462    -3.2001508    -1.8671275
C           2.2866642    -1.4555019    -0.6001529
O           1.3298406    -1.5800071     0.1665376
C           5.6615531     0.3483953    -4.5841385
H           5.7466744     0.1246930    -5.6447980
H           6.6129216     0.4874368    -4.0950771
C           4.4952534    -0.2961900    -3.8850397
H           3.8587116    -0.8310731    -4.5808966
C           4.4814514     1.1866880    -4.1112836
H           4.6618719     1.8241446    -3.2510474
H           3.7786580     1.5982905    -4.8303406
28
137_C13H13NO_14-13-23-25 (150,) energy =    -633.1341983
C           5.3612078     1.3117014     0.2523084
H           6.2025013     1.9341643     0.5492002
C           4.2490161     1.2181238     1.0927042
H           4.2055825     1.8002900     2.0087461
C           3.2531239     0.3087987     0.7808775
H           2.4161616     0.1128916     1.4434319
C           3.3116666    -0.4292641    -0.4083840
C           4.3696800    -0.2230999    -1.3298604
C           5.4685257     0.5851910    -0.9368614
C           6.8080867     0.5868958    -1.6430952
H           7.6035853     0.7445061    -0.9080560
H           6.9128600     1.3766280    -2.3951250
H           6.9959864    -0.3738300    -2.1306980
N           4.3421800    -0.9205456    -2.5725543
C           3.5014588    -2.0244906    -2.6551482
H           3.6158476    -2.5909236    -3.5754931
C           2.5801815    -2.3790564    -1.7321044
H           1.9727687    -3.2663118    -1.8704829
C           2.3090003    -1.5150194    -0.5954714
O           1.3629376    -1.6812931     0.1764910
C           5.6530537     0.2061711    -4.6432837
H           5.6612949     0.0040078    -5.7113025
H           6.6276892     0.1483185    -4.1785113
C           4.4310342    -0.2403516    -3.8859008
H           3.6527072    -0.6349525    -4.5306447
C           4.6654997     1.2255686    -4.0984952
H           4.9808537     1.8249052    -3.2524794
H           3.9992142     1.7454630    -4.7811988
28
137_C13H13NO_14-13-23-25 (165,) energy =    -633.1346188
C           5.3367246     1.3279053     0.2559288
H           6.1675836     1.9552698     0.5716491
C           4.2196470     1.2024169     1.0870933
H           4.1613039     1.7702742     2.0113193
C           3.2430674     0.2750296     0.7625325
H           2.4131609     0.0494537     1.4246791
C           3.3209003    -0.4437612    -0.4372728
C           4.3725508    -0.1919505    -1.3513710
C           5.4617911     0.6202114    -0.9429342
C           6.8115700     0.6109303    -1.6331023
H           7.6009825     0.7127220    -0.8815519
H           6.9602852     1.4207184    -2.3558164
H           6.9735542    -0.3365311    -2.1548017
N           4.3657651    -0.8656770    -2.6046457
C           3.6027697    -2.0237231    -2.6971483
H           3.7520444    -2.5722597    -3.6237892
C           2.6967272    -2.4260551    -1.7779367
H           2.1393555    -3.3461198    -1.9130415
C           2.3689067    -1.5717735    -0.6444080
O           1.4205390    -1.7832356     0.1128635
C           5.6044927     0.1235534    -4.7339576
H           5.5407267    -0.0542199    -5.8041440
H           6.5749541    -0.0925354    -4.3022342
C           4.3786554    -0.1558657    -3.9006867
H           3.4945348    -0.4237427    -4.4722317
C           4.8131024     1.2623324    -4.1258163
H           5.2504775     1.8191344    -3.3087397
H           4.1759787     1.8630459    -4.7690340
28
137_C13H13NO_14-13-23-25 (180,) energy =    -633.1375766
C           6.2628487    -0.2256815     0.2369475
H           7.3194906    -0.0835465     0.4552673
C           5.4591350    -0.9068082     1.1566177
H           5.9011391    -1.3400633     2.0494411
C           4.0867433    -0.9339225     0.9623348
H           3.4035205    -1.3404640     1.7012448
C           3.5278462    -0.3894834    -0.2003699
C           4.3692512     0.1487715    -1.2050392
C           5.7451333     0.3519681    -0.9255487
C           6.6220357     1.3259987    -1.6912082
H           6.9639431     2.1064823    -1.0006318
H           6.0870774     1.8178691    -2.5039141
H           7.5212249     0.8570101    -2.1068147
N           3.7720573     0.5812245    -2.4141381
C           2.4290533     0.9147426    -2.3909023
H           2.0711789     1.3967575    -3.2970285
C           1.5899181     0.6043714    -1.3742447
H           0.5484172     0.9038369    -1.4021113
C           2.0458606    -0.2339813    -0.2733346
O           1.2906886    -0.7249480     0.5676362
C           4.4627243    -1.2362499    -4.1888346
H           4.0421432    -1.5549834    -5.1387428
H           4.4737983    -2.0026632    -3.4188565
C           4.2355979     0.1833628    -3.7441095
H           3.7437211     0.8155781    -4.4796605
C           5.6137134    -0.2406592    -4.1503260
H           6.3632578    -0.4378442    -3.3966930
H           6.0063897     0.1662192    -5.0782605
