18
172_C5H10N2O_2-3-5-10 (-165,) energy =    -381.2606092
N           1.2467398    -1.0960333    -0.9678157
H           1.5393425    -0.9542206    -1.9265016
C           2.2178123    -1.5887463    -0.1084664
N           3.5162527    -1.2844432    -0.5110110
H           3.6006545    -0.4287329    -1.0473053
C           4.5940579    -1.5170926     0.4226653
C           5.7604433    -2.3895471     0.0376180
H           5.7470196    -2.8209664    -0.9590837
H           6.2049568    -3.0212628     0.8018371
H           4.2565159    -1.5661118     1.4536811
C           5.9286172    -0.8867560     0.1422936
H           6.4872883    -0.4706051     0.9758109
H           6.0476879    -0.3347501    -0.7880060
O           1.9582857    -2.2178105     0.9088939
C          -0.1328348    -1.5230706    -0.7854336
H          -0.3207817    -2.5388276    -1.1614247
H          -0.7970872    -0.8230943    -1.3007235
H          -0.3579132    -1.5114689     0.2815755
18
172_C5H10N2O_2-3-5-10 (-150,) energy =    -381.2597998
N           1.2559388    -1.1413007    -1.0013662
H           1.5444226    -1.1387457    -1.9716442
C           2.2040880    -1.5818282    -0.0890198
N           3.5116283    -1.4165011    -0.5294693
H           3.6516503    -0.6817524    -1.2120206
C           4.5968161    -1.6147776     0.4018469
C           5.8477127    -2.3413126    -0.0188317
H           5.9052069    -2.6774908    -1.0506967
H           6.3298098    -3.0009721     0.6978266
H           4.2270587    -1.7826156     1.4074855
C           5.8760364    -0.8445089     0.2284398
H           6.3745736    -0.4602288     1.1141752
H           5.9703530    -0.1972317    -0.6418642
O           1.9131204    -2.0601836     1.0004658
C          -0.1452868    -1.4538749    -0.7616257
H          -0.4015492    -2.4941001    -1.0082974
H          -0.7704468    -0.7816626    -1.3567006
H          -0.3560570    -1.2965469     0.2966686
18
172_C5H10N2O_2-3-5-10 (-135,) energy =    -381.2599674
N           0.9837989    -1.2490819    -0.5502444
H           0.7764469    -1.8820050     0.2120455
C           2.3171941    -1.1708347    -0.9254756
N           3.1983034    -1.5007436     0.0987538
H           2.8453208    -1.3453240     1.0352740
C           4.6060594    -1.2294793    -0.0797208
C           5.4655611    -1.0201828     1.1369768
H           5.0036527    -1.1365296     2.1158967
H           6.2304814    -0.2491911     1.1039335
H           4.7937113    -0.6228665    -0.9591326
C           5.6336854    -2.2675556     0.2949645
H           6.5205852    -2.3652229    -0.3255815
H           5.2650824    -3.2028234     0.7072951
O           2.6796371    -0.8339851    -2.0457506
C          -0.0416303    -1.1417339    -1.5775930
H          -0.9964238    -0.8876607    -1.1078645
H          -0.1635488    -2.0657626    -2.1605797
H           0.2433114    -0.3444754    -2.2648775
18
172_C5H10N2O_2-3-5-10 (-120,) energy =    -381.2609693
N           0.9808814    -1.1890992    -0.5502737
H           0.7524888    -1.7006624     0.2928776
C           2.3207080    -1.1858252    -0.9084340
N           3.1815687    -1.3739460     0.1722233
H           2.8232004    -1.0264222     1.0546044
C           4.5909798    -1.1302909    -0.0336183
C           5.4752693    -1.1221653     1.1836896
H           5.0187372    -1.3489863     2.1449686
H           6.2700441    -0.3835006     1.2363473
H           4.8013205    -0.4229539    -0.8306770
C           5.5798179    -2.2488311     0.1822108
H           6.4515859    -2.2950209    -0.4647899
H           5.1736588    -3.2142111     0.4692282
O           2.7097819    -1.0218247    -2.0569552
C          -0.0265089    -1.2184114    -1.6004566
H          -0.9851660    -0.8890654    -1.1890601
H          -0.1513549    -2.2150233    -2.0472409
H           0.2801490    -0.5310868    -2.3896937
18
172_C5H10N2O_2-3-5-10 (-105,) energy =    -381.2620085
N           0.9987300    -1.1419053    -0.5422314
H           0.7500622    -1.5339687     0.3571341
C           2.3452536    -1.1827094    -0.8694658
N           3.1834802    -1.2317793     0.2454442
H           2.8135359    -0.7686191     1.0686078
C           4.5956198    -1.0266054     0.0349755
C           5.4932638    -1.2213946     1.2279190
H           5.0326791    -1.5410295     2.1596412
H           6.3292489    -0.5396319     1.3550565
H           4.8459750    -0.2368383    -0.6701711
C           5.5220146    -2.2138238     0.0902969
H           6.3795393    -2.2212089    -0.5764335
H           5.0646022    -3.1839211     0.2579664
O           2.7610895    -1.1647574    -2.0196383
C           0.0102589    -1.2951758    -1.5988475
H          -0.9481696    -0.8913974    -1.2592015
H          -0.1304545    -2.3414309    -1.9055742
H           0.3494345    -0.7315160    -2.4686860
18
172_C5H10N2O_2-3-5-10 (-90,) energy =    -381.2625405
N           1.0154188    -1.0868026    -0.5470935
H           0.7478673    -1.3618867     0.3894574
C           2.3681223    -1.1699727    -0.8413931
N           3.1844409    -1.0819195     0.2866185
H           2.8001405    -0.5434612     1.0553451
C           4.6025146    -0.9304651     0.0944176
C           5.4936812    -1.3197869     1.2458966
H           5.0155228    -1.7129433     2.1391747
H           6.3730582    -0.7115253     1.4374062
H           4.9081691    -0.0818684    -0.5167790
C           5.4494749    -2.1701688    -0.0004003
H           6.2971983    -2.1515151    -0.6787405
H           4.9318143    -3.1222757     0.0566052
O           2.8043593    -1.2978090    -1.9765799
C           0.0466436    -1.3709467    -1.5947095
H          -0.9165235    -0.9259300    -1.3276668
H          -0.0926050    -2.4473566    -1.7696180
H           0.4048754    -0.9224184    -2.5220193
18
172_C5H10N2O_2-3-5-10 (-75,) energy =    -381.2623734
N           1.0372549    -1.0302616    -0.5587199
H           0.7543032    -1.1837216     0.4008749
C           2.3939173    -1.1598062    -0.8226274
N           3.1938209    -0.9371401     0.2957289
H           2.7919527    -0.3564196     1.0224840
C           4.6192031    -0.8470792     0.1480834
C           5.4737137    -1.4185140     1.2538585
H           4.9600027    -1.8765735     2.0945238
H           6.3856352    -0.8888963     1.5149312
H           4.9895622     0.0446679    -0.3589609
C           5.3905603    -2.1156150    -0.0814401
H           6.2421340    -2.0702566    -0.7533071
H           4.8164496    -3.0341493    -0.1401195
O           2.8397403    -1.4317363    -1.9283413
C           0.0803048    -1.4414642    -1.5745754
H          -0.8832160    -0.9610550    -1.3797579
H          -0.0642128    -2.5307365    -1.6125502
H           0.4535519    -1.1170559    -2.5465694
18
172_C5H10N2O_2-3-5-10 (-60,) energy =    -381.2615194
N           1.0564370    -0.9847170    -0.5758102
H           0.7677455    -1.0274452     0.3932491
C           2.4147668    -1.1470060    -0.8202226
N           3.2090740    -0.7956443     0.2640701
H           2.7899575    -0.2012470     0.9678937
C           4.6401948    -0.7812193     0.1869094
C           5.4305001    -1.5065110     1.2530614
H           4.8648612    -2.0179173     2.0268185
H           6.3585660    -1.0548682     1.5927696
H           5.0794792     0.1343667    -0.2119948
C           5.3535321    -2.0586864    -0.1487516
H           6.2254303    -1.9878118    -0.7915701
H           4.7383293    -2.9344039    -0.3209583
O           2.8563501    -1.5483299    -1.8881678
C           0.1020624    -1.5051304    -1.5425478
H          -0.8599687    -1.0013389    -1.4085594
H          -0.0482086    -2.5910650    -1.4572640
H           0.4812766    -1.2953217    -2.5432412
18
172_C5H10N2O_2-3-5-10 (-45,) energy =    -381.2602295
N           1.1893485    -1.3470278    -0.3608007
H           0.8712432    -0.6814640     0.3323501
C           2.5391320    -1.2939131    -0.6943768
N           3.3313953    -0.7739101     0.3157865
H           2.9050639    -0.6311349     1.2214620
C           4.7626069    -0.7023475     0.2592289
C           5.5801193    -1.5154135     1.2401877
H           5.0369247    -2.1573781     1.9289687
H           6.4720644    -1.0577248     1.6594448
H           5.1549543     0.2811535     0.0004251
C           5.5596180    -1.8840453    -0.2207382
H           6.4376419    -1.6772286    -0.8253425
H           5.0016742    -2.7609922    -0.5257227
O           2.9705333    -1.6946376    -1.7675227
C           0.2280893    -1.6665009    -1.4058499
H           0.0452149    -0.8290383    -2.0945078
H          -0.7186225    -1.9613132    -0.9435659
H           0.6177890    -2.5018351    -1.9885789
18
172_C5H10N2O_2-3-5-10 (-30,) energy =    -381.2593165
N           1.1990344    -1.2986044    -0.3551178
H           0.8881834    -0.5543437     0.2567172
C           2.5506206    -1.2970998    -0.6876983
N           3.3389678    -0.6683698     0.2650022
H           2.8973611    -0.4887872     1.1579014
C           4.7764386    -0.6706272     0.2857774
C           5.5234549    -1.6010182     1.2203160
H           4.9286602    -2.2909104     1.8134428
H           6.4051088    -1.2155783     1.7256960
H           5.2134395     0.3177803     0.1458186
C           5.5641939    -1.8241457    -0.2699956
H           6.4752199    -1.5820183    -0.8095616
H           5.0016250    -2.6500137    -0.6857794
O           2.9746480    -1.8160722    -1.7121136
C           0.2372977    -1.7156020    -1.3650592
H           0.0755658    -0.9580554    -2.1453342
H          -0.7174993    -1.9369674    -0.8791223
H           0.6121539    -2.6193868    -1.8465837
18
172_C5H10N2O_2-3-5-10 (-15,) energy =    -381.2582786
N           1.1941991    -1.2311438    -0.3541960
H           0.9062455    -0.3970684     0.1422716
C           2.5501137    -1.3256963    -0.6573690
N           3.3436351    -0.6068832     0.2253026
H           2.8855164    -0.3385883     1.0878759
C           4.7800768    -0.6554629     0.3216677
C           5.4769487    -1.6856599     1.1897087
H           4.8498608    -2.4335265     1.6679947
H           6.3298717    -1.3640932     1.7819389
H           5.2267895     0.3379987     0.3127436
C           5.5976023    -1.7449214    -0.3132451
H           6.5361577    -1.4453627    -0.7712926
H           5.0600606    -2.5203173    -0.8423225
O           2.9621409    -1.9875262    -1.6018561
C           0.2316635    -1.7411156    -1.3198970
H           0.1141251    -1.0889474    -2.1971700
H          -0.7388838    -1.8572899    -0.8286726
H           0.5752456    -2.7153938    -1.6690236
18
172_C5H10N2O_2-3-5-10 (0,) energy =    -381.2575715
N           1.1892769    -1.1666142    -0.3767932
H           0.9325520    -0.2512126    -0.0286664
C           2.5475119    -1.3705378    -0.6075510
N           3.3458239    -0.5740005     0.1997718
H           2.8768964    -0.2101617     1.0206805
C           4.7782837    -0.6542713     0.3553514
C           5.4501206    -1.7709910     1.1301067
H           4.8137837    -2.5786916     1.4817637
H           6.2700169    -1.5156184     1.7967185
H           5.2105773     0.3368877     0.4810203
C           5.6410357    -1.6521616    -0.3643065
H           6.5949291    -1.2892230    -0.7377747
H           5.1411101    -2.3744949    -0.9948992
O           2.9520205    -2.1807797    -1.4329533
C           0.2333200    -1.7725703    -1.2923340
H           0.1890076    -1.2659114    -2.2669633
H          -0.7597433    -1.7531316    -0.8339437
H           0.5271880    -2.8084336    -1.4654516
18
172_C5H10N2O_2-3-5-10 (15,) energy =    -381.2575602
N           1.1869595    -1.1109049    -0.4055049
H           0.9662229    -0.1400011    -0.2223012
C           2.5406919    -1.4101208    -0.5295098
N           3.3441971    -0.5434692     0.1932143
H           2.8744114    -0.0764015     0.9589869
C           4.7716139    -0.6618878     0.3874277
C           5.4235777    -1.8618616     1.0416579
H           4.7829810    -2.7116373     1.2594462
H           6.2185454    -1.6914982     1.7633837
H           5.1906411     0.3085358     0.6439005
C           5.6649817    -1.5596551    -0.4216974
H           6.6280815    -1.1504068    -0.7162382
H           5.1959530    -2.2153647    -1.1421189
O           2.9419887    -2.3555590    -1.1990921
C           0.2406070    -1.8151046    -1.2585198
H           0.2674235    -1.4756532    -2.3036864
H          -0.7691613    -1.6733396    -0.8623710
H           0.4838289    -2.8782103    -1.2443100
18
172_C5H10N2O_2-3-5-10 (30,) energy =    -381.2580240
N           1.1981306    -1.0631927    -0.4357391
H           1.0001791    -0.0721557    -0.3786271
C           2.5434445    -1.4116924    -0.4639630
N           3.3540580    -0.4824901     0.1663252
H           2.8866711     0.0777961     0.8680211
C           4.7678827    -0.6609191     0.4221524
C           5.3782260    -1.9306641     0.9707636
H           4.7262634    -2.7932457     1.0617335
H           6.1429267    -1.8457236     1.7389162
H           5.1846320     0.2712934     0.7948131
C           5.6849681    -1.4779463    -0.4435855
H           6.6636280    -1.0565490    -0.6598817
H           5.2411152    -2.0582332    -1.2414694
O           2.9440756    -2.4472458    -0.9857404
C           0.2587612    -1.8461523    -1.2251474
H           0.3231089    -1.6370427    -2.3024236
H          -0.7580756    -1.6366217    -0.8806100
H           0.4766952    -2.9041582    -1.0745958
18
172_C5H10N2O_2-3-5-10 (45,) energy =    -381.2580267
N           1.1424149    -0.8049630    -0.8491466
H           0.8525229     0.0194660    -0.3382702
C           2.3524058    -1.3653932    -0.4563083
N           3.2186123    -0.4407971     0.1028436
H           3.0597729     0.5160842    -0.1867534
C           4.5963907    -0.7130558     0.4547463
C           5.1110855    -2.0564045     0.8859579
H           4.4384967    -2.9010623     0.8188131
H           5.8011012    -2.0726518     1.7260201
H           4.9978629     0.1363342     1.0017790
C           5.5720502    -1.4542909    -0.4291869
H           6.5850627    -1.0694998    -0.5170191
H           5.1741246    -1.9164329    -1.3266502
O           2.6086141    -2.5549231    -0.6125017
C           0.0675061    -1.6921377    -1.2691155
H          -0.6853498    -1.1102529    -1.8087594
H          -0.4146287    -2.2116203    -0.4288236
H           0.4829227    -2.4473183    -1.9373974
18
172_C5H10N2O_2-3-5-10 (60,) energy =    -381.2575439
N           1.1608527    -0.8261393    -0.8980149
H           0.9134341     0.0694615    -0.4960224
C           2.3259533    -1.4081785    -0.4069524
N           3.2371107    -0.4693766     0.0482724
H           3.1172611     0.4570719    -0.3422365
C           4.5885586    -0.7322841     0.4876760
C           5.1260156    -2.0963544     0.8147167
H           4.4826574    -2.9458630     0.6322037
H           5.7643810    -2.1698014     1.6915471
H           4.9258701     0.0709313     1.1392034
C           5.6462448    -1.3537763    -0.3989691
H           6.6493443    -0.9350668    -0.3826143
H           5.3212381    -1.7245847    -1.3668696
O           2.5014010    -2.6216534    -0.4086947
C           0.0383703    -1.6919471    -1.2287625
H          -0.6677193    -1.1374788    -1.8538456
H          -0.4887327    -2.0716327    -0.3418998
H           0.4150608    -2.5490198    -1.7881404
18
172_C5H10N2O_2-3-5-10 (75,) energy =    -381.2576298
N           1.1960120    -0.8668290    -0.9629604
H           1.0049019     0.1010738    -0.7353390
C           2.2913828    -1.4379622    -0.3191345
N           3.2499412    -0.4973818     0.0273071
H           3.1759601     0.3782676    -0.4766784
C           4.5793391    -0.7523735     0.5273454
C           5.1446532    -2.1345242     0.7033255
H           4.5211522    -2.9651705     0.4022260
H           5.7447608    -2.3031419     1.5935878
H           4.8596844    -0.0249143     1.2870129
C           5.6978904    -1.2368302    -0.3762347
H           6.6856817    -0.7996736    -0.2533950
H           5.4325106    -1.4761318    -1.4025540
O           2.3667639    -2.6430532    -0.1110300
C           0.0193091    -1.6933835    -1.1902745
H          -0.6216791    -1.2044261    -1.9297098
H          -0.5624645    -1.8762034    -0.2755409
H           0.3438459    -2.6586189    -1.5804603
18
172_C5H10N2O_2-3-5-10 (90,) energy =    -381.2584994
N           1.2251661    -0.8986453    -1.0129080
H           1.0928429     0.1036978    -0.9596115
C           2.2662063    -1.4210318    -0.2497202
N           3.2706959    -0.4934028    -0.0127548
H           3.2440406     0.3275465    -0.6052663
C           4.5663051    -0.7637315     0.5546477
C           5.1465907    -2.1522178     0.5828058
H           4.5464105    -2.9450399     0.1567532
H           5.6995440    -2.4308242     1.4756061
H           4.7909810    -0.1328427     1.4135074
C           5.7405328    -1.1223680    -0.3394028
H           6.7114867    -0.6930510    -0.1054657
H           5.5365211    -1.2252678    -1.4020377
O           2.2680648    -2.5804957     0.1441795
C           0.0035641    -1.6792893    -1.1445329
H          -0.5808684    -1.2889238    -1.9828908
H          -0.6170734    -1.6651693    -0.2371110
H           0.2760239    -2.7151186    -1.3493474
18
172_C5H10N2O_2-3-5-10 (105,) energy =    -381.2596301
N           1.2391017    -0.9543720    -1.0474251
H           1.1577152     0.0507624    -1.1357880
C           2.2535632    -1.4200177    -0.2163870
N           3.3036602    -0.5229809    -0.0906598
H           3.3201375     0.2473984    -0.7465441
C           4.5512375    -0.8040554     0.5646036
C           5.1600250    -2.1789566     0.4892502
H           4.6066029    -2.9317944    -0.0574339
H           5.6563085    -2.5464478     1.3827749
H           4.6946047    -0.2605543     1.4979013
C           5.7922537    -1.0479722    -0.2735360
H           6.7328899    -0.6311729     0.0769862
H           5.6700679    -1.0374445    -1.3536134
O           2.2106045    -2.5183104     0.3225400
C          -0.0176175    -1.6872260    -1.0882197
H          -0.5724483    -1.3978792    -1.9856538
H          -0.6481653    -1.5111319    -0.2048088
H           0.2073651    -2.7532349    -1.1338395
18
172_C5H10N2O_2-3-5-10 (120,) energy =    -381.2607144
N           1.2712362    -0.9597229    -0.7504104
H           1.4969377    -0.2838592    -1.4690363
C           2.3467418    -1.5287176    -0.0771158
N           3.4754275    -0.7236033    -0.0778850
H           3.3643060     0.2436700    -0.3515926
C           4.7005951    -1.0713367     0.5779548
C           5.3017571    -2.4221384     0.3043038
H           4.7610401    -3.0722104    -0.3731067
H           5.7681158    -2.9357295     1.1395662
H           4.8144930    -0.6854339     1.5915690
C           5.9625027    -1.1926301    -0.2550517
H           6.8953087    -0.8475844     0.1831254
H           5.8674982    -1.0093105    -1.3216474
O           2.2828127    -2.6204623     0.4722085
C           0.0911130    -1.7730535    -0.9994493
H           0.2170829    -2.4686081    -1.8418279
H          -0.7619421    -1.1187520    -1.2029424
H          -0.1132363    -2.3618505    -0.1046212
18
172_C5H10N2O_2-3-5-10 (135,) energy =    -381.2619341
N           1.2652307    -0.9756149    -0.8001114
H           1.5022437    -0.3788923    -1.5824361
C           2.3332519    -1.5309434    -0.1072299
N           3.5036027    -0.7880609    -0.2207308
H           3.4003527     0.1874691    -0.4717040
C           4.6712407    -1.1221973     0.5423330
C           5.3584643    -2.4251703     0.2422414
H           4.9124793    -3.0485353    -0.5246982
H           5.7761930    -2.9733428     1.0810945
H           4.6682306    -0.8012309     1.5846779
C           6.0025053    -1.1305145    -0.1765463
H           6.8743368    -0.7761786     0.3666794
H           5.9954478    -0.8798995    -1.2336320
O           2.2439453    -2.5634485     0.5422669
C           0.0416585    -1.7495179    -0.9428497
H           0.1091635    -2.5206769    -1.7237209
H          -0.7871286    -1.0753960    -1.1791461
H          -0.1599776    -2.2479441     0.0059473
18
172_C5H10N2O_2-3-5-10 (150,) energy =    -381.2625283
N           1.2555874    -1.0024863    -0.8526713
H           1.5112750    -0.5035294    -1.6953407
C           2.3048915    -1.5435855    -0.1236916
N           3.5160065    -0.8850595    -0.3315752
H           3.4450926     0.0878652    -0.6074449
C           4.6377794    -1.2022863     0.5089581
C           5.4417977    -2.4305419     0.1856102
H           5.1104456    -3.0237618    -0.6602858
H           5.8370709    -3.0062601     1.0169493
H           4.5253861    -0.9575206     1.5653743
C           6.0141253    -1.0632123    -0.0941297
H           6.8110302    -0.6865133     0.5408432
H           6.0747776    -0.7456233    -1.1314579
O           2.1777781    -2.4959751     0.6325530
C          -0.0123583    -1.7146537    -0.8969052
H          -0.0043718    -2.5623039    -1.5970220
H          -0.8072205    -1.0208882    -1.1866563
H          -0.2207633    -2.1034238     0.1004989
18
172_C5H10N2O_2-3-5-10 (165,) energy =    -381.2624197
N           1.2557642    -1.0247371    -0.8982308
H           1.5307774    -0.6370079    -1.7917685
C           2.2785760    -1.5536442    -0.1258232
N           3.5282742    -1.0023248    -0.4117243
H           3.5048766    -0.0442647    -0.7439536
C           4.6198490    -1.2994965     0.4795794
C           5.5515558    -2.4293624     0.1343125
H           5.3327491    -2.9853381    -0.7718069
H           5.9502912    -3.0241591     0.9507518
H           4.4145694    -1.1413878     1.5373855
C           6.0088839    -0.9970283    -0.0162649
H           6.7271821    -0.5956072     0.6927784
H           6.1089794    -0.6067837    -1.0258538
O           2.1040541    -2.4099092     0.7296808
C          -0.0578946    -1.6484713    -0.8520844
H          -0.1182988    -2.5660287    -1.4545893
H          -0.8087871    -0.9374920    -1.2093707
H          -0.2757801    -1.9106157     0.1838910
18
172_C5H10N2O_2-3-5-10 (180,) energy =    -381.2616669
N           1.2444354    -1.0611300    -0.9320927
H           1.5323681    -0.7886144    -1.8634558
C           2.2412428    -1.5796939    -0.1196574
N           3.5202964    -1.1455047    -0.4689051
H           3.5485267    -0.2213475    -0.8855467
C           4.5977165    -1.4128251     0.4533610
C           5.6561788    -2.4208051     0.0914761
H           5.5483290    -2.9249937    -0.8639933
H           6.0726462    -3.0318054     0.8872443
H           4.3156744    -1.3522376     1.5019890
C           5.9712342    -0.9403474     0.0663648
H           6.6056775    -0.5206839     0.8416756
H           6.0915721    -0.4736417    -0.9086137
O           2.0220905    -2.3326289     0.8192472
C          -0.1059244    -1.5909424    -0.8149687
H          -0.2301474    -2.5623078    -1.3144575
H          -0.8129059    -0.8755519    -1.2453533
H          -0.3308240    -1.7250088     0.2437271
