18
172_C5H10N2O_0-2-3-5 (-165,) energy =    -381.2601927
N           1.2447374    -1.2429977    -1.1751403
H           1.2606639    -0.3230057    -1.5971603
C           2.1773240    -1.4826284    -0.1732423
N           3.2801870    -0.6435400    -0.2186327
H           3.4012398    -0.0595857    -1.0351968
C           4.4693511    -0.9550082     0.5269191
C           5.2836777    -2.1789463     0.1964614
H           4.9222554    -2.8106879    -0.6088348
H           5.7451198    -2.7169534     1.0192684
H           4.4212063    -0.6726573     1.5764257
C           5.8021056    -0.8061058    -0.1601988
H           6.6266148    -0.3857139     0.4085475
H           5.8022151    -0.5260215    -1.2115899
O           2.0540478    -2.3734972     0.6566046
C          -0.0676279    -1.8641847    -1.0761063
H          -0.5204452    -1.9175497    -2.0708183
H          -0.7490433    -1.3252084    -0.4019759
H           0.0661073    -2.8739118    -0.6868815
18
172_C5H10N2O_0-2-3-5 (-150,) energy =    -381.2584450
N           1.2505264    -1.3201022    -1.1788950
H           1.3917765    -0.5610095    -1.8336501
C           2.0769357    -1.3475028    -0.0652080
N           3.2451776    -0.5965866    -0.1997246
H           3.4448978    -0.2728598    -1.1396602
C           4.4169907    -1.0373235     0.5215816
C           5.2917448    -2.1528489     0.0035733
H           5.0116377    -2.6161081    -0.9389689
H           5.7366449    -2.8341620     0.7234121
H           4.2855214    -0.9730361     1.5965415
C           5.7717682    -0.7153468    -0.0374476
H           6.5514433    -0.3963974     0.6484120
H           5.8224313    -0.2294356    -1.0102562
O           1.8294583    -2.0036428     0.9369524
C          -0.1167990    -1.8060206    -1.0631739
H          -0.4591326    -2.1754182    -2.0348075
H          -0.8157945    -1.0353386    -0.7081591
H          -0.1167495    -2.6264543    -0.3450126
18
172_C5H10N2O_0-2-3-5 (-135,) energy =    -381.2553353
N           1.3569616    -1.3977943    -1.0852807
H           1.5753075    -0.7866610    -1.8616994
C           2.0940168    -1.2451953     0.0767687
N           3.2780033    -0.5084181    -0.0713575
H           3.4632496    -0.2097512    -1.0242170
C           4.4643695    -1.0479348     0.5623785
C           5.2847552    -2.1354812    -0.0886327
H           4.9607849    -2.4995879    -1.0605899
H           5.7339596    -2.8946273     0.5458256
H           4.3668668    -1.0777865     1.6421596
C           5.8080817    -0.7132409    -0.0117211
H           6.6204405    -0.4840648     0.6721585
H           5.8422810    -0.1383893    -0.9354519
O           1.7799874    -1.7659276     1.1374078
C          -0.0187485    -1.8680453    -1.0111753
H          -0.2742398    -2.4032840    -1.9308668
H          -0.7406027    -1.0529311    -0.8605346
H          -0.0876249    -2.5520044    -0.1647827
18
172_C5H10N2O_0-2-3-5 (-120,) energy =    -381.2519541
N           1.3819673    -1.3518584    -1.1409221
H           1.8546018    -0.9181673    -1.9200468
C           1.9380738    -1.1529311     0.0823176
N           3.1390835    -0.3351074    -0.0194051
H           2.9859252     0.4699206     0.5909134
C           4.3054628    -1.0497024     0.4790546
C           5.1124984    -1.8372064    -0.5194556
H           4.7709211    -1.8276163    -1.5502877
H           5.5544163    -2.7749179    -0.1950566
H           4.2210628    -1.4666280     1.4832760
C           5.6533596    -0.5435242     0.0446027
H           6.4715342    -0.5857705     0.7582050
H           5.6663550     0.3202829    -0.6135446
O           1.4924000    -1.5921293     1.1316545
C           0.1875374    -2.1462363    -1.3513634
H           0.3984434    -3.0314866    -1.9638026
H          -0.5966133    -1.5574695    -1.8417372
H          -0.1670327    -2.4685352    -0.3711857
18
172_C5H10N2O_0-2-3-5 (-105,) energy =    -381.2528613
N           1.4529975    -1.3901162    -1.1124150
H           1.9946924    -1.0511430    -1.8932690
C           1.8873013    -1.0347538     0.1257171
N           3.1199031    -0.2723094     0.0541657
H           3.0161320     0.4673867     0.7507092
C           4.2696786    -1.0737478     0.4536439
C           5.0348448    -1.7970762    -0.6237201
H           4.6841587    -1.6843858    -1.6453317
H           5.4456320    -2.7753187    -0.3909287
H           4.1900621    -1.5742475     1.4202836
C           5.6298393    -0.5791133     0.0431176
H           6.4551748    -0.7123498     0.7369061
H           5.6637819     0.3391253    -0.5357362
O           1.3043542    -1.2889142     1.1696488
C           0.2736621    -2.2027090    -1.3360866
H           0.5273318    -3.1534626    -1.8209875
H          -0.4575135    -1.6738462    -1.9588626
H          -0.1715825    -2.4065910    -0.3611570
18
172_C5H10N2O_0-2-3-5 (-90,) energy =    -381.2547065
N           1.5119676    -1.4644788    -1.0812615
H           2.1413951    -1.2764366    -1.8468250
C           1.8443623    -0.9452865     0.1327473
N           3.1127261    -0.2622519     0.1024307
H           3.0512297     0.4326548     0.8470615
C           4.2446679    -1.1268387     0.4074871
C           5.0262302    -1.7240540    -0.7348516
H           4.7038638    -1.4820378    -1.7434831
H           5.4225632    -2.7282827    -0.6147763
H           4.1489762    -1.7385691     1.3068633
C           5.6177050    -0.6026528     0.0854251
H           6.4268535    -0.8265181     0.7747171
H           5.6716396     0.3777374    -0.3786468
O           1.1300210    -0.9885660     1.1248051
C           0.3154994    -2.2517548    -1.3023546
H           0.5575473    -3.2780463    -1.6060007
H          -0.3184748    -1.7972814    -2.0729624
H          -0.2360052    -2.2779952    -0.3614347
18
172_C5H10N2O_0-2-3-5 (-75,) energy =    -381.2574535
N           1.5633947    -1.5145994    -1.0153232
H           2.2859895    -1.5358344    -1.7190836
C           1.8296926    -0.8410728     0.1411703
N           3.1305500    -0.2503585     0.1567226
H           3.1087177     0.4154812     0.9278019
C           4.2437883    -1.1622900     0.3592393
C           5.0422394    -1.6158009    -0.8404285
H           4.7425919    -1.2372372    -1.8138488
H           5.4303168    -2.6304150    -0.8454958
H           4.1320810    -1.8850527     1.1699833
C           5.6262142    -0.6165895     0.1285712
H           6.4204105    -0.9369257     0.7966502
H           5.6986260     0.4148061    -0.2037741
O           1.0168768    -0.6669559     1.0397375
C           0.3356842    -2.2548978    -1.2261846
H           0.5176882    -3.3349602    -1.3006958
H          -0.1713668    -1.9207987    -2.1390391
H          -0.3130314    -2.0608746    -0.3709079
18
172_C5H10N2O_0-2-3-5 (-60,) energy =    -381.2606350
N           1.5975575    -1.5994294    -0.9625597
H           2.3894456    -1.7963874    -1.5562327
C           1.7966351    -0.7941033     0.1244052
N           3.1114142    -0.2720772     0.2166890
H           3.1032080     0.3662809     1.0090743
C           4.2193623    -1.1991293     0.3205910
C           5.0119876    -1.5322728    -0.9260884
H           4.7064414    -1.0570135    -1.8542783
H           5.4013967    -2.5408585    -1.0332340
H           4.1132740    -2.0005256     1.0545097
C           5.6012600    -0.6361017     0.1349589
H           6.3982908    -1.0238651     0.7625626
H           5.6750041     0.4231309    -0.0929363
O           0.9103719    -0.4552698     0.8991622
C           0.3404083    -2.2779707    -1.2055300
H           0.4302522    -3.3657404    -1.0847910
H          -0.0279400    -2.0669414    -2.2163119
H          -0.3804153    -1.8986073    -0.4800796
18
172_C5H10N2O_0-2-3-5 (-45,) energy =    -381.2633016
N           1.4991876    -1.8430510    -0.8747392
H           2.3106521    -2.0637249    -1.4326859
C           1.6141132    -0.8557427     0.0672705
N           2.9187158    -0.3458360     0.2163506
H           2.8980378     0.3221516     0.9816809
C           4.0512101    -1.2379886     0.2872301
C           4.8549803    -1.4982248    -0.9720036
H           4.5311671    -0.9995852    -1.8813451
H           5.2779379    -2.4887924    -1.1154704
H           3.9684013    -2.0712776     0.9875843
C           5.4148256    -0.6260532     0.1237115
H           6.2231245    -1.0136858     0.7367517
H           5.4576350     0.4430695    -0.0623009
O           0.6678321    -0.3907485     0.6919747
C           0.2152909    -2.4092044    -1.2371328
H           0.2730270    -3.5025513    -1.2862901
H          -0.1423312    -2.0318051    -2.2047063
H          -0.5016825    -2.1201224    -0.4677102
18
172_C5H10N2O_0-2-3-5 (-30,) energy =    -381.2649006
N           1.5327523    -2.0769121    -0.8647307
H           2.3841340    -2.3311498    -1.3447943
C           1.5599342    -0.9586940    -0.0675224
N           2.8396898    -0.4513794     0.1899080
H           2.7804429     0.2467365     0.9234540
C           4.0072147    -1.2895287     0.2418138
C           4.8198706    -1.4838868    -1.0258858
H           4.4676479    -0.9800708    -1.9214456
H           5.2875660    -2.4504159    -1.1929532
H           3.9614513    -2.1425088     0.9217938
C           5.3423876    -0.6149100     0.0898046
H           6.1684034    -0.9815283     0.6919710
H           5.3379565     0.4592357    -0.0703364
O           0.5553877    -0.4137739     0.3758596
C           0.2743870    -2.5899083    -1.3739262
H           0.3440072    -3.6737571    -1.5103587
H          -0.0130380    -2.1299681    -2.3300415
H          -0.5027939    -2.3671780    -0.6418398
18
172_C5H10N2O_0-2-3-5 (-15,) energy =    -381.2651228
N           1.5372447    -2.1326409    -0.7452454
H           2.4019361    -2.4523817    -1.1591114
C           1.5744279    -0.9450473    -0.0473220
N           2.8491220    -0.5058821     0.3024814
H           2.8073301     0.2262451     1.0004125
C           4.0307822    -1.3155522     0.2680645
C           4.7820699    -1.4535665    -1.0456282
H           4.3710181    -0.9334988    -1.9058535
H           5.2601057    -2.4044992    -1.2651200
H           4.0382846    -2.1887543     0.9238714
C           5.3440857    -0.6092291     0.0684590
H           6.2066984    -0.9780476     0.6154525
H           5.3116410     0.4692319    -0.0554187
O           0.5728640    -0.3123198     0.2688851
C           0.2961930    -2.5667476    -1.3633193
H           0.2923900    -3.6576026    -1.4517017
H           0.1409802    -2.1291085    -2.3599309
H          -0.5283926    -2.2536726    -0.7220297
18
172_C5H10N2O_0-2-3-5 (0,) energy =    -381.2642923
N           1.7383044    -1.8474496    -1.2084140
H           2.4285906    -2.5061443    -0.8762905
C           1.8784122    -0.5330493    -0.8164195
N           3.1285061    -0.1971388    -0.3171681
H           3.2501367     0.7986332    -0.1958599
C           4.2563193    -1.0616057    -0.1740416
C           5.1263962    -0.8863740     1.0422686
H           4.8268197    -0.1272890     1.7591652
H           6.1997823    -0.9943805     0.9181133
H           4.7702476    -1.3376869    -1.0975201
C           4.2563675    -2.1103037     0.9269115
H           4.7311112    -3.0666018     0.7237399
H           3.3776740    -2.1590192     1.5630766
O           0.9924879     0.3075921    -0.9345557
C           0.4247619    -2.3642519    -1.5500468
H          -0.1336832    -2.7250206    -0.6740997
H           0.5278741    -3.1862694    -2.2654061
H          -0.1460221    -1.5562808    -2.0089612
18
172_C5H10N2O_0-2-3-5 (15,) energy =    -381.2651295
N           1.7116718    -1.8836940    -1.1406142
H           2.3472918    -2.5359366    -0.7032472
C           1.8528635    -0.5523320    -0.8181653
N           3.0510633    -0.2211214    -0.1894104
H           3.2010640     0.7799804    -0.1867454
C           4.2110642    -1.0603615    -0.1451141
C           5.1482322    -0.8834445     1.0185679
H           4.8743911    -0.1437381     1.7651362
H           6.2143395    -0.9646030     0.8286472
H           4.6675212    -1.3071388    -1.1062355
C           4.3017575    -2.1269976     0.9332352
H           4.7861813    -3.0676412     0.6850884
H           3.4646063    -2.2061058     1.6204974
O           1.0079364     0.3002565    -1.0689033
C           0.4274606    -2.3892333    -1.5927871
H          -0.2277463    -2.6886828    -0.7622244
H           0.5810851    -3.2511860    -2.2496903
H          -0.0700884    -1.5947658    -2.1500386
18
172_C5H10N2O_0-2-3-5 (30,) energy =    -381.2649006
N           1.6594073    -1.8837833    -1.0258131
H           2.2297060    -2.5375289    -0.5087890
C           1.8589916    -0.5440020    -0.7981896
N           3.0120659    -0.2377662    -0.0646872
H           3.1766681     0.7623830    -0.1042037
C           4.1972991    -1.0509036    -0.1125208
C           5.1851050    -0.8890272     1.0095093
H           4.9298997    -0.1834190     1.7946451
H           6.2424492    -0.9359795     0.7663307
H           4.6075777    -1.2515072    -1.1042250
C           4.3661030    -2.1515833     0.9196042
H           4.8606230    -3.0699354     0.6148010
H           3.5676602    -2.2757626     1.6455447
O           1.0898298     0.3328773    -1.1751901
C           0.4119950    -2.3577461    -1.5960585
H          -0.3492728    -2.5668231    -0.8311603
H           0.5914751    -3.2698323    -2.1740646
H           0.0257800    -1.5811533    -2.2573531
18
172_C5H10N2O_0-2-3-5 (45,) energy =    -381.2633015
N           1.5867814    -1.7096813    -0.8849859
H           2.0815688    -2.3795956    -0.3150140
C           1.9501863    -0.3925777    -0.7929366
N           3.0752620    -0.1573038     0.0213680
H           3.2929569     0.8332325    -0.0402940
C           4.2474737    -0.9923510    -0.0882483
C           5.2657320    -0.8894808     1.0132359
H           5.0411637    -0.2125851     1.8322830
H           6.3158996    -0.9418667     0.7415219
H           4.6311984    -1.1588476    -1.0965986
C           4.4238191    -2.1350254     0.8928864
H           4.8938455    -3.0482658     0.5382370
H           3.6451747    -2.2769135     1.6371868
O           1.3274457     0.5281620    -1.3090430
C           0.3929987    -2.1266655    -1.5929361
H          -0.4210085    -2.3930831    -0.9052452
H           0.6042756    -2.9877097    -2.2372668
H           0.0645213    -1.2879466    -2.2079848
18
172_C5H10N2O_0-2-3-5 (60,) energy =    -381.2606350
N           1.5914092    -1.6009843    -0.6309189
H           2.0490791    -2.2722436    -0.0323497
C           2.1244939    -0.3442061    -0.7086626
N           3.2306679    -0.1374645     0.1534789
H           3.4764412     0.8456588     0.0612521
C           4.4022773    -0.9731643    -0.0098775
C           5.4343030    -0.9242977     1.0826570
H           5.2191194    -0.2870528     1.9352778
H           6.4813350    -0.9654456     0.7971130
H           4.7756570    -1.0900485    -1.0292185
C           4.5864916    -2.1605206     0.9119294
H           5.0468673    -3.0579757     0.5082029
H           3.8189187    -2.3353379     1.6609517
O           1.6432176     0.5656340    -1.3728014
C           0.4940655    -2.0316666    -1.4736885
H          -0.3207475    -2.4486298    -0.8703034
H           0.8097585    -2.7862699    -2.2063841
H           0.1266848    -1.1528311    -2.0051570
18
172_C5H10N2O_0-2-3-5 (75,) energy =    -381.2574539
N           1.5245341    -1.5607740    -0.5565244
H           1.8441920    -2.1598216     0.1897550
C           2.1705900    -0.3716728    -0.7316826
N           3.2188438    -0.1613241     0.2161278
H           3.4398294     0.8312750     0.1496827
C           4.4363922    -0.9250476     0.0019091
C           5.4523393    -0.9181898     1.1108664
H           5.1944551    -0.3673946     2.0106511
H           6.5037689    -0.8832033     0.8407740
H           4.8256287    -0.9332917    -1.0182006
C           4.6673266    -2.1741521     0.8197304
H           5.1732664    -3.0113536     0.3472607
H           3.9009960    -2.4510926     1.5385355
O           1.8370455     0.4807717    -1.5443656
C           0.4786990    -2.0224376    -1.4469765
H          -0.4350393    -2.2583839    -0.8889280
H           0.7858980    -2.9129533    -2.0107227
H           0.2657601    -1.2132417    -2.1468601
18
172_C5H10N2O_0-2-3-5 (90,) energy =    -381.2547064
N           1.4404768    -1.5592111    -0.5090017
H           1.6132674    -2.0202810     0.3714441
C           2.1953857    -0.4612942    -0.7892963
N           3.1783440    -0.2028730     0.2320995
H           3.3462703     0.8023574     0.1824636
C           4.4518885    -0.8683711    -0.0067811
C           5.4208805    -0.9335803     1.1423653
H           5.0943950    -0.5018142     2.0838636
H           6.4791643    -0.8145931     0.9282653
H           4.8777076    -0.7396230    -1.0039486
C           4.7179951    -2.1859185     0.6756519
H           5.2868211    -2.9371561     0.1352323
H           3.9381874    -2.5840101     1.3184973
O           2.0268620     0.2677409    -1.7569982
C           0.4239553    -2.0686649    -1.4075370
H          -0.5561233    -2.0994839    -0.9168334
H           0.6698172    -3.0761530    -1.7661363
H           0.3714057    -1.3890007    -2.2592827
18
172_C5H10N2O_0-2-3-5 (105,) energy =    -381.2528579
N           1.3631163    -1.5133287    -0.4685837
H           1.4283352    -1.8537389     0.4790374
C           2.2465830    -0.5446207    -0.8275334
N           3.1664610    -0.2410456     0.2532350
H           3.2695786     0.7752078     0.2368242
C           4.4876143    -0.8057491     0.0052162
C           5.4090239    -0.9454557     1.1861713
H           5.0231673    -0.6266208     2.1499396
H           6.4687686    -0.7603765     1.0345892
H           4.9404577    -0.5566470    -0.9560246
C           4.7871410    -2.1728100     0.5623494
H           5.4146277    -2.8381292    -0.0237573
H           3.9971518    -2.6686271     1.1186497
O           2.2522394     0.0289548    -1.9070018
C           0.3666469    -2.0514877    -1.3732635
H          -0.6423190    -1.9372869    -0.9599727
H           0.5440219    -3.1139526    -1.5814733
H           0.4349434    -1.4891004    -2.3056823
18
172_C5H10N2O_0-2-3-5 (120,) energy =    -381.2541318
N           1.1576741    -1.1336654    -0.7602064
H           1.1939707    -0.1801330    -1.0921434
C           2.3357249    -1.8443102    -0.6513116
N           3.5062347    -1.0821982    -0.8707197
H           3.3063214    -0.1495501    -1.2250436
C           4.4542013    -1.0122725     0.2208028
C           5.4245006    -2.1483890     0.3851907
H           5.3241117    -2.9703319    -0.3141135
H           5.6920990    -2.4392428     1.3967309
H           4.0967292    -0.5304235     1.1332303
C           5.9072034    -0.8198108    -0.1393755
H           6.5114535    -0.1885978     0.5063202
H           6.1464452    -0.7518611    -1.1966181
O           2.3719127    -3.0221624    -0.3296940
C          -0.1255925    -1.8129107    -0.8229726
H          -0.4880785    -1.9320796    -1.8533516
H          -0.8742199    -1.2593886    -0.2465432
H           0.0090385    -2.8009337    -0.3812959
18
172_C5H10N2O_0-2-3-5 (135,) energy =    -381.2578303
N           1.1004301    -1.0917641    -0.7830934
H           1.1695132    -0.2559666    -1.3491929
C           2.2731267    -1.7667429    -0.4872028
N           3.4430176    -1.0242170    -0.7215519
H           3.2615237    -0.0717882    -1.0271071
C           4.4679184    -1.0558791     0.2968994
C           5.4546345    -2.1885717     0.2763544
H           5.3129642    -2.9386377    -0.4935439
H           5.7969622    -2.5755648     1.2314581
H           4.1746908    -0.6733394     1.2758725
C           5.8885291    -0.8082408    -0.1483850
H           6.5339527    -0.2338139     0.5102262
H           6.0516764    -0.6346398    -1.2082651
O           2.2881506    -2.8890135    -0.0044282
C          -0.1527707    -1.8254050    -0.8757901
H          -0.3389880    -2.2259410    -1.8824237
H          -0.9842378    -1.1715686    -0.5948658
H          -0.0980029    -2.6602471    -0.1765146
18
172_C5H10N2O_0-2-3-5 (150,) energy =    -381.2608511
N           1.0977503    -1.0619203    -0.8601875
H           1.2242276    -0.3736967    -1.5920345
C           2.2460216    -1.6667023    -0.3696044
N           3.4158622    -0.9370192    -0.6104164
H           3.2503563     0.0273909    -0.8829476
C           4.4942710    -1.0613934     0.3396554
C           5.4851130    -2.1751862     0.1511279
H           5.3102132    -2.8450481    -0.6838672
H           5.8824841    -2.6519398     1.0420723
H           4.2530695    -0.7870667     1.3671253
C           5.8851686    -0.7534087    -0.1563021
H           6.5630241    -0.2396431     0.5194958
H           5.9909086    -0.4745624    -1.2010944
O           2.2321848    -2.7157589     0.2571065
C          -0.1355546    -1.8323517    -0.9280151
H          -0.1982175    -2.4630773    -1.8262989
H          -0.9918514    -1.1513736    -0.9113436
H          -0.1732968    -2.4808079    -0.0522398
18
172_C5H10N2O_0-2-3-5 (165,) energy =    -381.2624437
N           1.1179976    -1.0719639    -0.9235391
H           1.3088134    -0.5125547    -1.7453118
C           2.2247674    -1.5838310    -0.2620115
N           3.3907134    -0.8495438    -0.4837707
H           3.2424830     0.1221257    -0.7348832
C           4.5159891    -1.0705225     0.3857756
C           5.4703534    -2.1826677     0.0505463
H           5.2386322    -2.7778486    -0.8265674
H           5.9063037    -2.7380039     0.8754684
H           4.3402797    -0.8808065     1.4446819
C           5.8832468    -0.7469495    -0.1622839
H           6.6092113    -0.3026839     0.5127596
H           5.9390469    -0.3859372    -1.1856698
O           2.1797068    -2.5687865     0.4609695
C          -0.1071284    -1.8559744    -0.9616061
H          -0.0837372    -2.6527148    -1.7188476
H          -0.9544050    -1.1948026    -1.1668118
H          -0.2427564    -2.3220789     0.0149135
18
172_C5H10N2O_0-2-3-5 (180,) energy =    -381.2621231
N           1.1454484    -1.0922981    -0.9693825
H           1.4086279    -0.6331879    -1.8314454
C           2.1899280    -1.5017005    -0.1553966
N           3.3530816    -0.7579874    -0.3426732
H           3.2302670     0.2136481    -0.6011348
C           4.5203811    -1.0688345     0.4332802
C           5.4098861    -2.1896271    -0.0309214
H           5.1043451    -2.7205238    -0.9268285
H           5.8770338    -2.8094631     0.7283788
H           4.4229466    -0.9408929     1.5111979
C           5.8606663    -0.7572245    -0.1832426
H           6.6446043    -0.3798060     0.4671423
H           5.8654382    -0.3364623    -1.1852058
O           2.1043618    -2.4285976     0.6380837
C          -0.0762829    -1.8799566    -1.0055925
H           0.0111080    -2.7767955    -1.6354357
H          -0.8970145    -1.2605929    -1.3797919
H          -0.3057353    -2.2043047     0.0101966
