18
172_C5H10N2O_14-0-2-3 (-165,) energy =    -381.2579965
N           1.1539994    -0.8030411    -0.8966743
H           0.8612006     0.0112403    -0.3701801
C           2.3664584    -1.3596903    -0.5021329
N           3.1974568    -0.4568019     0.1411585
H           3.0185285     0.5136289    -0.0865659
C           4.5897831    -0.7176665     0.4511841
C           5.1108630    -2.0536811     0.8987467
H           4.4330769    -2.8967060     0.8598806
H           5.8183230    -2.0603894     1.7243153
H           5.0028515     0.1425104     0.9714049
C           5.5435896    -1.4794030    -0.4381355
H           6.5540506    -1.0949291    -0.5535652
H           5.1285583    -1.9608539    -1.3166771
O           2.6495771    -2.5352456    -0.7083816
C           0.0734351    -1.7040819    -1.2757441
H          -0.6937152    -1.1368845    -1.8106617
H          -0.3870610    -2.2077660    -0.4138937
H           0.4789080    -2.4700028    -1.9376142
18
172_C5H10N2O_14-0-2-3 (-150,) energy =    -381.2563301
N           1.1924563    -0.8044850    -1.0438725
H           0.9417364     0.0635145    -0.5831564
C           2.3914147    -1.3636329    -0.5992123
N           3.1717340    -0.4942873     0.1436797
H           2.9639941     0.4882193     0.0123676
C           4.5667504    -0.7351621     0.4644910
C           5.1115586    -2.0779441     0.8608359
H           4.4519771    -2.9315468     0.7705521
H           5.8051509    -2.1084281     1.6975761
H           4.9499425     0.1108285     1.0287303
C           5.5524758    -1.4334165    -0.4409840
H           6.5544500    -1.0188146    -0.5200868
H           5.1659053    -1.8841348    -1.3482553
O           2.6919293    -2.5312879    -0.8225121
C           0.0538744    -1.7031325    -1.2168800
H          -0.7082424    -1.2073972    -1.8250013
H          -0.3933797    -2.0119036    -0.2610174
H           0.4010284    -2.5955475    -1.7383099
18
172_C5H10N2O_14-0-2-3 (-135,) energy =    -381.2530355
N           1.2322557    -0.8268516    -1.1874101
H           1.0327052     0.0968354    -0.8162820
C           2.4261890    -1.3770957    -0.7020674
N           3.1486336    -0.5389800     0.1257661
H           2.8940912     0.4401569     0.0976202
C           4.5375597    -0.7556258     0.4896505
C           5.1028679    -2.1017602     0.8462128
H           4.4669325    -2.9649342     0.6961715
H           5.7687089    -2.1524324     1.7042566
H           4.8765722     0.0750256     1.1025691
C           5.5707441    -1.3891504    -0.4095127
H           6.5637953    -0.9473988    -0.4357924
H           5.2267207    -1.8071941    -1.3490008
O           2.7520681    -2.5333634    -0.9463216
C           0.0488302    -1.6879684    -1.1428375
H          -0.7403836    -1.2503418    -1.7608347
H          -0.3330190    -1.8332605    -0.1215770
H           0.3206109    -2.6606234    -1.5547836
18
172_C5H10N2O_14-0-2-3 (-120,) energy =    -381.2486591
N           1.2723430    -0.8313913    -1.3256193
H           1.1228844     0.1347841    -1.0476376
C           2.4785889    -1.3625385    -0.8248426
N           3.1377728    -0.5583751     0.0796482
H           2.8090938     0.3929676     0.1723522
C           4.5132042    -0.7493443     0.5024061
C           5.0975766    -2.0944055     0.8349788
H           4.4889357    -2.9646589     0.6233401
H           5.7261510    -2.1642758     1.7193199
H           4.8021297     0.0684358     1.1566157
C           5.6004290    -1.3234522    -0.3714071
H           6.5805245    -0.8543636    -0.3356763
H           5.3109700    -1.7137747    -1.3405640
O           2.8496395    -2.4936615    -1.1139165
C           0.0699379    -1.6295188    -1.0615290
H          -0.7612068    -1.2371292    -1.6545666
H          -0.2175295    -1.6334038     0.0007899
H           0.2659355    -2.6564133    -1.3749159
18
172_C5H10N2O_14-0-2-3 (-105,) energy =    -381.2468846
N           1.2612493    -0.7511813    -1.3295560
H           1.1964518    -0.8432763    -2.3441598
C           2.5628645    -1.2927153    -0.9955624
N           3.1638147    -0.5512686    -0.0306323
H           2.6805306     0.2979805     0.2217932
C           4.4548733    -0.7940461     0.5695673
C           5.0155604    -2.1732102     0.7980218
H           4.4621596    -3.0126033     0.3944915
H           5.5175308    -2.3588652     1.7440816
H           4.6345491    -0.0666930     1.3556425
C           5.6609062    -1.2481510    -0.2145706
H           6.6181093    -0.7877327     0.0162146
H           5.5071972    -1.5019377    -1.2572225
O           3.0533609    -2.2747410    -1.5400680
C           0.1724423    -1.5724247    -0.7596715
H          -0.7858252    -1.1734270    -1.1049188
H           0.1968186    -1.4957147     0.3320991
H           0.2409127    -2.6343745    -1.0362282
18
172_C5H10N2O_14-0-2-3 (-90,) energy =    -381.2488202
N           1.2857897    -0.8376996    -1.4468644
H           1.1804179    -1.0975860    -2.4271495
C           2.5813761    -1.3380478    -1.0775083
N           3.1207672    -0.6189010    -0.0552083
H           2.6417171     0.2409334     0.1682109
C           4.3983271    -0.8468755     0.5784230
C           5.0211809    -2.2094978     0.7228266
H           4.5319774    -3.0410458     0.2306786
H           5.4926205    -2.4441789     1.6737408
H           4.5076169    -0.1803863     1.4290611
C           5.6587933    -1.1751850    -0.1840544
H           6.5812510    -0.6896908     0.1241076
H           5.5601104    -1.3515766    -1.2492973
O           3.1377327    -2.2638695    -1.6571194
C           0.1795464    -1.4722789    -0.7020926
H          -0.7688466    -1.0692467    -1.0691981
H           0.2639364    -1.2228732     0.3599368
H           0.1631862    -2.5677995    -0.8004672
18
172_C5H10N2O_14-0-2-3 (-75,) energy =    -381.2512421
N           1.3290775    -0.9613212    -1.5214696
H           1.2020413    -1.3520854    -2.4528961
C           2.6123256    -1.4163935    -1.1028036
N           3.0816924    -0.7222817    -0.0231727
H           2.6081325     0.1487174     0.1690030
C           4.3645831    -0.9059984     0.6152418
C           5.0784081    -2.2282444     0.6823413
H           4.6590961    -3.0565048     0.1251242
H           5.5476703    -2.4928110     1.6265117
H           4.4137848    -0.2964104     1.5131892
C           5.6591313    -1.0933040    -0.1391667
H           6.5404827    -0.5684912     0.2207382
H           5.5920480    -1.2042869    -1.2157579
O           3.2361234    -2.2850227    -1.7028454
C           0.1893299    -1.3639276    -0.6785801
H          -0.7296159    -0.9593845    -1.1127307
H           0.3009208    -0.9419726     0.3240231
H           0.0848455    -2.4549041    -0.5826077
18
172_C5H10N2O_14-0-2-3 (-60,) energy =    -381.2535523
N           1.3592594    -1.0649978    -1.5528325
H           1.2111444    -1.5413999    -2.4383276
C           2.6366792    -1.4695821    -1.1061417
N           3.0426516    -0.8238021     0.0331042
H           2.5510529     0.0337333     0.2424710
C           4.3398200    -0.9591876     0.6575028
C           5.1395622    -2.2323409     0.6507468
H           4.7768034    -3.0527353     0.0446536
H           5.6249746    -2.5189553     1.5802780
H           4.3497234    -0.4029714     1.5908737
C           5.6442960    -1.0152577    -0.1012079
H           6.4890356    -0.4553229     0.2922137
H           5.5857098    -1.0688061    -1.1826100
O           3.3209505    -2.2705885    -1.7351427
C           0.2016709    -1.2483794    -0.6670192
H          -0.6971481    -0.9225364    -1.1981071
H           0.2995786    -0.6250545     0.2261381
H           0.0618377    -2.2902014    -0.3429521
18
172_C5H10N2O_14-0-2-3 (-45,) energy =    -381.2553667
N           1.3822954    -1.1624373    -1.5796779
H           1.2060380    -1.6897438    -2.4280868
C           2.6577710    -1.5242468    -1.1228314
N           3.0125347    -0.9416433     0.0698440
H           2.4818595    -0.1223223     0.3313616
C           4.3235608    -1.0275990     0.6769554
C           5.2058289    -2.2416122     0.5917761
H           4.8929201    -3.0457200    -0.0618652
H           5.7160024    -2.5504250     1.5007940
H           4.3034745    -0.5292196     1.6423527
C           5.6236293    -0.9506808    -0.0873284
H           6.4314612    -0.3599281     0.3374438
H           5.5630707    -0.9437867    -1.1698869
O           3.3878590    -2.2597383    -1.7810904
C           0.2282374    -1.1358772    -0.6794092
H          -0.6736159    -0.9996608    -1.2820394
H           0.2826907    -0.2839527     0.0074295
H           0.1184892    -2.0518170    -0.0814032
18
172_C5H10N2O_14-0-2-3 (-30,) energy =    -381.2564538
N           1.3770815    -1.2721932    -1.5196076
H           1.1732178    -1.8161759    -2.3483458
C           2.6567688    -1.5894355    -1.0689350
N           2.9767080    -1.0621036     0.1620187
H           2.4072154    -0.2872801     0.4729675
C           4.2992141    -1.0977343     0.7515553
C           5.2486576    -2.2538867     0.6066580
H           4.9747300    -3.0451478    -0.0792958
H           5.7855073    -2.5712216     1.4972728
H           4.2607753    -0.6437033     1.7380769
C           5.5845668    -0.9124895    -0.0185903
H           6.3617221    -0.2948064     0.4248186
H           5.5128354    -0.8631268    -1.0993241
O           3.4192282    -2.2699651    -1.7506698
C           0.2455878    -1.0343975    -0.6320330
H          -0.6684498    -1.0292918    -1.2309160
H           0.3141606    -0.0489270    -0.1531984
H           0.1456045    -1.7943613     0.1557279
18
172_C5H10N2O_14-0-2-3 (-15,) energy =    -381.2565487
N           1.3655108    -1.3898672    -1.5037803
H           1.1519880    -1.8998285    -2.3488317
C           2.6571178    -1.6455147    -1.0727863
N           2.9533310    -1.1647883     0.1854731
H           2.3443241    -0.4424485     0.5435917
C           4.2848794    -1.1446189     0.7564677
C           5.2925472    -2.2431646     0.5664101
H           5.0511232    -3.0251730    -0.1421398
H           5.8570477    -2.5600511     1.4399799
H           4.2350307    -0.7222336     1.7564848
C           5.5491553    -0.8669839    -0.0205710
H           6.2965089    -0.2221543     0.4353721
H           5.4638939    -0.7891150    -1.0985097
O           3.4490146    -2.2675882    -1.7780272
C           0.2596199    -0.9626023    -0.6666738
H          -0.6604977    -1.0072781    -1.2540712
H           0.3789816     0.0800545    -0.3398201
H           0.1312983    -1.5931348     0.2247640
18
172_C5H10N2O_14-0-2-3 (0,) energy =    -381.2561310
N           1.4122085    -1.5110056    -1.4360817
H           1.2442769    -1.8465956    -2.3721273
C           2.7208351    -1.6829085    -1.0321859
N           3.0000496    -1.2271351     0.2405908
H           2.3616415    -0.5455095     0.6256358
C           4.3323918    -1.1659608     0.8071599
C           5.3814121    -2.2196003     0.5892592
H           5.1681830    -2.9941865    -0.1363772
H           5.9611476    -2.5338242     1.4538047
H           4.2693415    -0.7689647     1.8168049
C           5.5821707    -0.8210948     0.0336472
H           6.3059477    -0.1586106     0.5022460
H           5.4898269    -0.7224177    -1.0418756
O           3.5418431    -2.2374136    -1.7612771
C           0.3288823    -0.9170908    -0.6822569
H          -0.6027489    -1.0564710    -1.2356833
H           0.4604047     0.1652424    -0.5261608
H           0.2098558    -1.3981703     0.2975748
18
172_C5H10N2O_14-0-2-3 (15,) energy =    -381.2565487
N           1.1637172    -1.8956375    -0.3010842
H           0.7066780    -2.7910972    -0.2060495
C           2.5331654    -2.0065884    -0.1231478
N           3.2530149    -0.8770418    -0.4517785
H           2.7325780    -0.0122255    -0.4981600
C           4.6621706    -0.6980840    -0.1659166
C           5.3561766    -1.1938092     1.0798266
H           4.7836989    -1.8235954     1.7513350
H           6.0752838    -0.5342230     1.5594695
H           4.9777616     0.2740408    -0.5351105
C           5.6830870    -1.7954250    -0.2749633
H           6.6309024    -1.5508869    -0.7483014
H           5.3196764    -2.8000603    -0.4496245
O           3.0364714    -3.0510577     0.2857626
C           0.4870152    -0.8613761    -1.0617910
H           0.5191110     0.1078650    -0.5443401
H          -0.5665422    -1.1332884    -1.1604245
H           0.9058272    -0.7305499    -2.0698485
18
172_C5H10N2O_14-0-2-3 (30,) energy =    -381.2564538
N           1.1421120    -1.8202338    -0.2112008
H           0.7078785    -2.7318868    -0.1432699
C           2.5228654    -1.9623304    -0.0900545
N           3.2413980    -0.8195800    -0.3611997
H           2.7232648     0.0474348    -0.3267679
C           4.6626426    -0.6686481    -0.1264045
C           5.3973692    -1.2318719     1.0662929
H           4.8413661    -1.8867788     1.7277495
H           6.1424630    -0.6052629     1.5503491
H           4.9755082     0.3164549    -0.4618651
C           5.6651553    -1.7703903    -0.3270505
H           6.5966391    -1.5107961    -0.8240942
H           5.2855148    -2.7621499    -0.5366903
O           3.0232981    -3.0303955     0.2535025
C           0.5053064    -0.8900501    -1.1352410
H           0.5731460     0.1434084    -0.7712383
H          -0.5585019    -1.1333637    -1.1923552
H           0.9294483    -0.9272957    -2.1485650
18
172_C5H10N2O_14-0-2-3 (45,) energy =    -381.2553667
N           1.0968474    -1.7784987    -0.1021533
H           0.6743412    -2.6948423     0.0013810
C           2.4860123    -1.9490632    -0.0150802
N           3.2061630    -0.7955294    -0.2112991
H           2.6903840     0.0663833    -0.1000643
C           4.6357993    -0.6688007    -0.0246391
C           5.4085820    -1.3110515     1.1025455
H           4.8703541    -2.0004629     1.7433812
H           6.1776476    -0.7213625     1.5953108
H           4.9459115     0.3326835    -0.3103615
C           5.6186882    -1.7642719    -0.3301759
H           6.5334214    -1.4822197    -0.8456037
H           5.2222816    -2.7385017    -0.5860786
O           2.9802760    -3.0376892     0.2639862
C           0.4902358    -0.9936136    -1.1787298
H           0.6667226     0.0780050    -1.0339057
H          -0.5920498    -1.1437721    -1.1445566
H           0.8536202    -1.2687108    -2.1791671
18
172_C5H10N2O_14-0-2-3 (60,) energy =    -381.2535523
N           1.0684571    -1.6850017    -0.0675388
H           0.6432036    -2.5919935     0.1042866
C           2.4637098    -1.8942790    -0.0004883
N           3.1913003    -0.7364880    -0.0997808
H           2.6781982     0.1138419     0.0860582
C           4.6269450    -0.6331142     0.0383762
C           5.4338428    -1.3713125     1.0797324
H           4.9104775    -2.1052219     1.6823902
H           6.2274260    -0.8306725     1.5894644
H           4.9367306     0.3858792    -0.1768941
C           5.5854922    -1.7087118    -0.3915417
H           6.4832263    -1.3929587    -0.9170652
H           5.1703990    -2.6563697    -0.7103401
O           2.9449021    -3.0054592     0.1975358
C           0.4961810    -1.0650720    -1.2702410
H           0.8504947    -0.0360331    -1.3769680
H          -0.5910977    -1.0281811    -1.1581357
H           0.7372005    -1.6072229    -2.1964957
18
172_C5H10N2O_14-0-2-3 (75,) energy =    -381.2512421
N           1.0345687    -1.5828165    -0.0350840
H           0.5892102    -2.4592816     0.2292170
C           2.4329076    -1.8487669     0.0198392
N           3.1788716    -0.7036767     0.0175520
H           2.6709565     0.1426765     0.2309488
C           4.6184668    -0.6249030     0.1097133
C           5.4460790    -1.4563398     1.0604191
H           4.9294775    -2.2285033     1.6196618
H           6.2638541    -0.9693120     1.5855744
H           4.9354352     0.4046207    -0.0314949
C           5.5455797    -1.6755988    -0.4369885
H           6.4312073    -1.3314176    -0.9650636
H           5.1048037    -2.5885156    -0.8172886
O           2.8885884    -2.9819804     0.1287999
C           0.5044249    -1.1565843    -1.3423149
H           0.9616635    -0.2082371    -1.6377506
H          -0.5734531    -0.9950034    -1.2491811
H           0.6844541    -1.8891150    -2.1431556
18
172_C5H10N2O_14-0-2-3 (90,) energy =    -381.2488202
N           1.0044407    -1.4356270    -0.0226587
H           0.5287124    -2.2499127     0.3649306
C           2.4009147    -1.7692307     0.0395976
N           3.1769123    -0.6537128     0.1212137
H           2.6805377     0.2055248     0.3057216
C           4.6189809    -0.6101397     0.1856991
C           5.4428093    -1.5463828     1.0358098
H           4.9174692    -2.3548890     1.5317226
H           6.2814166    -1.1286522     1.5870226
H           4.9551662     0.4215712     0.1378529
C           5.5099748    -1.6264144    -0.4767613
H           6.3942656    -1.2559632    -0.9889762
H           5.0381933    -2.4885687    -0.9318597
O           2.8190315    -2.9211835     0.0681109
C           0.5080517    -1.2509252    -1.4012944
H           1.0042748    -0.3880091    -1.8555743
H          -0.5651375    -1.0422818    -1.3641045
H           0.6787663    -2.1269497    -2.0443714
18
172_C5H10N2O_14-0-2-3 (105,) energy =    -381.2468846
N           1.0174820    -1.2911987    -0.0512448
H           0.5266403    -2.0093651     0.4829954
C           2.4119957    -1.6793627     0.0093659
N           3.2112117    -0.5941554     0.1692205
H           2.7263295     0.2767189     0.3272500
C           4.6531622    -0.5854229     0.2511656
C           5.4462485    -1.6207929     1.0092041
H           4.8993275    -2.4635807     1.4163198
H           6.2857035    -1.2774239     1.6082847
H           5.0089654     0.4386000     0.3145796
C           5.5311460    -1.5496690    -0.5025112
H           6.4295757    -1.1506781    -0.9663015
H           5.0448102    -2.3500427    -1.0470748
O           2.8002764    -2.8400228    -0.0502463
C           0.4970371    -1.3617125    -1.4328655
H           0.9904526    -0.5985147    -2.0432032
H          -0.5741208    -1.1403154    -1.4162735
H           0.6548186    -2.3418423    -1.9054747
18
172_C5H10N2O_14-0-2-3 (120,) energy =    -381.2486591
N           1.0456625    -1.3500160    -0.0994095
H           0.8380939    -0.4275637     0.2735565
C           2.4296517    -1.6071449    -0.1793002
N           3.2393740    -0.5236711     0.0847834
H           2.7961843     0.2951769     0.4781632
C           4.6645237    -0.6049354     0.3481264
C           5.3392629    -1.7693445     1.0293646
H           4.7356843    -2.6447247     1.2410379
H           6.1095864    -1.5499296     1.7644610
H           5.0374684     0.3835656     0.6011291
C           5.6025437    -1.4798051    -0.4367345
H           6.5592808    -1.0545677    -0.7297773
H           5.1604320    -2.1697429    -1.1446177
O           2.8594431    -2.6939647    -0.5464288
C           0.2848397    -1.5845067    -1.3317618
H           0.5107155    -0.8518255    -2.1212759
H          -0.7851943    -1.5489586    -1.1076454
H           0.5297381    -2.5823774    -1.6997529
18
172_C5H10N2O_14-0-2-3 (135,) energy =    -381.2530355
N           1.0716692    -1.2505114    -0.2001988
H           0.8710702    -0.2912901     0.0651436
C           2.4420373    -1.5299649    -0.2885213
N           3.2654058    -0.4809396     0.0738187
H           2.8268391     0.2684303     0.5938176
C           4.6813247    -0.6216950     0.3633529
C           5.3101190    -1.8383389     0.9971609
H           4.6781345    -2.7065285     1.1474730
H           6.0696828    -1.6815738     1.7590490
H           5.0766853     0.3417327     0.6733170
C           5.6137150    -1.4788382    -0.4458070
H           6.5870997    -1.0622543    -0.6930542
H           5.1739314    -2.1192281    -1.1997873
O           2.8578341    -2.5993046    -0.7203026
C           0.2423163    -1.6775420    -1.3288339
H           0.3970880    -1.0618453    -2.2270844
H          -0.8118509    -1.6313776    -1.0409132
H           0.4979049    -2.7108882    -1.5665144
18
172_C5H10N2O_14-0-2-3 (150,) energy =    -381.2563301
N           1.0965606    -1.1343496    -0.2927676
H           0.9031662    -0.1502995    -0.1418146
C           2.4549668    -1.4476624    -0.3593921
N           3.2841544    -0.4396695     0.1020681
H           2.8394517     0.2378558     0.7094531
C           4.6911742    -0.6273870     0.4054959
C           5.2894215    -1.8888887     0.9797890
H           4.6416807    -2.7538098     1.0696123
H           6.0388046    -1.7880656     1.7610469
H           5.0999729     0.3089067     0.7758197
C           5.6228272    -1.4529392    -0.4356076
H           6.6065926    -1.0394977    -0.6439476
H           5.1872029    -2.0436532    -1.2312991
O           2.8604595    -2.5078967    -0.8231477
C           0.2167729    -1.7377596    -1.2906337
H           0.3197381    -1.2760837    -2.2832578
H          -0.8215651    -1.6459857    -0.9592440
H           0.4720380    -2.7944453    -1.3746850
18
172_C5H10N2O_14-0-2-3 (165,) energy =    -381.2579955
N           1.1293163    -1.0306500    -0.4042773
H           0.9407943    -0.0376229    -0.3405967
C           2.4758893    -1.3784578    -0.4290317
N           3.2985201    -0.4174622     0.1358177
H           2.8390531     0.1909161     0.8023181
C           4.7018056    -0.6273355     0.4347924
C           5.2911999    -1.9199940     0.9471375
H           4.6378474    -2.7844813     0.9872949
H           6.0367939    -1.8647066     1.7365864
H           5.1137722     0.2865116     0.8546968
C           5.6353674    -1.4128537    -0.4416578
H           6.6218572    -0.9923930    -0.6210096
H           5.2053012    -1.9605342    -1.2703423
O           2.8756744    -2.4328728    -0.9120669
C           0.2063570    -1.7790704    -1.2469933
H           0.2779656    -1.5052755    -2.3093364
H          -0.8168484    -1.6054197    -0.9013889
H           0.4406914    -2.8399615    -1.1545327
18
172_C5H10N2O_14-0-2-3 (180,) energy =    -381.2577372
N           1.1664294    -0.9512789    -0.5422719
H           0.9723123     0.0407545    -0.5235229
C           2.4984360    -1.3345444    -0.5022198
N           3.3017419    -0.4233949     0.1628987
H           2.8191796     0.1409577     0.8501361
C           4.7008057    -0.6393107     0.4680457
C           5.2887473    -1.9527122     0.9280297
H           4.6368793    -2.8191828     0.9186407
H           6.0242569    -1.9322576     1.7285685
H           5.1046964     0.2551490     0.9351611
C           5.6490359    -1.3805780    -0.4310440
H           6.6359445    -0.9486698    -0.5778056
H           5.2335685    -1.8917299    -1.2899705
O           2.8972179    -2.3897334    -0.9862871
C           0.1947413    -1.8032681    -1.2064434
H           0.1980163    -1.6904423    -2.2998985
H          -0.8053750    -1.5708697    -0.8283048
H           0.4328041    -2.8425713    -0.9761558
