20
103_C9H8N2S_8-0-16-17 (-165,) energy =    -855.4568836
N           2.3146630    -1.7122115    -0.5137716
H           1.8757492    -2.3832622     0.1008524
C           5.6990940     0.0801887     1.2492916
H           6.5693834     0.5299682     1.7181398
C           4.9770426    -0.9172679     1.9083271
H           5.2793792    -1.2509584     2.8973954
C           3.8620856    -1.4920798     1.3069499
H           3.3035370    -2.2672194     1.8289664
C           3.4490249    -1.0772209     0.0291105
C           4.1743112    -0.0800008    -0.6404263
H           3.8622018     0.2325552    -1.6274722
C           5.2875874     0.4877481    -0.0198566
H           5.8408749     1.2609880    -0.5466078
C           1.0174643    -0.5483295    -3.5940610
H           1.2050067     0.0711018    -4.4640313
N           1.9874169    -0.6187533    -2.6158789
C           1.6083743    -1.4072052    -1.6497000
S          -0.0065656    -2.1259468    -1.8722901
C          -0.1115016    -1.2784581    -3.3985969
H          -0.9774997    -1.3826873    -4.0360735
20
103_C9H8N2S_8-0-16-17 (-150,) energy =    -855.4558989
N           2.4112011    -1.8322738    -0.5965469
H           1.9605119    -2.4866729     0.0283739
C           5.6405349     0.1364091     1.2712626
H           6.4712936     0.6314781     1.7655105
C           4.9396310    -0.8837811     1.9178945
H           5.2180478    -1.1891101     2.9230268
C           3.8745554    -1.5165178     1.2842267
H           3.3304899    -2.3076250     1.7974822
C           3.4930130    -1.1377347    -0.0136759
C           4.2007360    -0.1218326    -0.6727593
H           3.9181325     0.1568565    -1.6791116
C           5.2612580     0.5065866    -0.0194012
H           5.8006581     1.2952254    -0.5376355
C           1.0447682    -0.5857637    -3.6159341
H           1.2454877    -0.0144639    -4.5153822
N           2.0640536    -0.7554178    -2.7029333
C           1.6626843    -1.4748512    -1.6933474
S          -0.0408070    -1.9865706    -1.7839974
C          -0.1461239    -1.1740717    -3.3272746
H          -1.0544855    -1.1998221    -3.9117683
20
103_C9H8N2S_8-0-16-17 (-135,) energy =    -855.4543480
N           2.5059238    -1.9420884    -0.6538667
H           2.0538238    -2.5937010    -0.0258897
C           5.5836521     0.1871722     1.2982673
H           6.3762901     0.7237705     1.8114138
C           4.9070997    -0.8542076     1.9364315
H           5.1658230    -1.1339159     2.9542182
C           3.8897613    -1.5402210     1.2788863
H           3.3624319    -2.3463885     1.7860657
C           3.5351575    -1.1942474    -0.0346310
C           4.2212584    -0.1596282    -0.6860413
H           3.9637294     0.0892700    -1.7075008
C           5.2312791     0.5241934    -0.0093241
H           5.7538971     1.3277535    -0.5217861
C           1.0720268    -0.6301552    -3.6166313
H           1.2752424    -0.1184994    -4.5507177
N           2.1263961    -0.9043547    -2.7726293
C           1.7169504    -1.5400259    -1.7119328
S          -0.0403839    -1.8215013    -1.6597087
C          -0.1584890    -1.0560761    -3.2227861
H          -1.1008076    -0.9946648    -3.7482423
20
103_C9H8N2S_8-0-16-17 (-120,) energy =    -855.4523564
N           2.5857971    -2.0364163    -0.7077782
H           2.1359732    -2.6916503    -0.0805649
C           5.5197322     0.2313761     1.3141532
H           6.2762815     0.8042273     1.8423546
C           4.8739541    -0.8348082     1.9425326
H           5.1206662    -1.0976021     2.9678097
C           3.9013614    -1.5673560     1.2663357
H           3.3964342    -2.3923056     1.7659313
C           3.5642657    -1.2434692    -0.0563075
C           4.2212158    -0.1848382    -0.6979710
H           3.9808649     0.0451348    -1.7287878
C           5.1845111     0.5464780    -0.0037650
H           5.6846455     1.3686591    -0.5090597
C           1.0979130    -0.6888467    -3.6313363
H           1.2940747    -0.2553679    -4.6055711
N           2.1667489    -1.0693253    -2.8507062
C           1.7618057    -1.5964920    -1.7310231
S          -0.0077801    -1.6203782    -1.5371681
C          -0.1448432    -0.9235478    -3.1263690
H          -1.1073416    -0.7634188    -3.5914975
20
103_C9H8N2S_8-0-16-17 (-105,) energy =    -855.4501651
N           2.6371616    -2.1082000    -0.7528124
H           2.1899331    -2.7693239    -0.1285237
C           5.4534113     0.2664713     1.3177788
H           6.1811050     0.8669782     1.8556713
C           4.8509463    -0.8318452     1.9333196
H           5.1031759    -1.0924235     2.9578701
C           3.9141944    -1.6004741     1.2456651
H           3.4435131    -2.4511983     1.7351863
C           3.5714205    -1.2808605    -0.0758964
C           4.1849419    -0.1885890    -0.7035065
H           3.9427728     0.0394416    -1.7350223
C           5.1124728     0.5783597     0.0002585
H           5.5792515     1.4256576    -0.4953677
C           1.1013498    -0.7727187    -3.6622831
H           1.2751991    -0.4449803    -4.6809742
N           2.1640320    -1.2544564    -2.9325684
C           1.7851700    -1.6356201    -1.7472287
S           0.0540703    -1.3723245    -1.4242625
C          -0.1154771    -0.7789668    -3.0474745
H          -1.0793939    -0.5063453    -3.4543662
20
103_C9H8N2S_8-0-16-17 (-90,) energy =    -855.4494044
N           2.2439250    -1.7910515    -0.4253896
H           2.3475633    -2.7997766    -0.3746166
C           5.5596335     0.1623846     1.3308692
H           6.4068592     0.6574263     1.7961310
C           5.1566341    -1.1044359     1.7594671
H           5.6897898    -1.6045819     2.5637639
C           4.0686598    -1.7391822     1.1664609
H           3.7523825    -2.7207220     1.5130391
C           3.3682810    -1.1176964     0.1214784
C           3.7725069     0.1513082    -0.3123942
H           3.2475954     0.6421592    -1.1252651
C           4.8592082     0.7809133     0.2952096
H           5.1620015     1.7642132    -0.0553012
C           1.0648537    -1.5583074    -3.7691529
H           1.1547172    -1.9658435    -4.7697110
N           1.8889120    -2.0422076    -2.7789890
C           1.6708494    -1.4294909    -1.6499539
S           0.3732009    -0.2299339    -1.7135385
C           0.1972206    -0.5700307    -3.4051052
H          -0.5034604    -0.0260214    -4.0235510
20
103_C9H8N2S_8-0-16-17 (-75,) energy =    -855.4514816
N           2.3409542    -1.7952415    -0.5206845
H           2.4705696    -2.8018317    -0.5020392
C           5.5357897     0.1875594     1.4140772
H           6.3530995     0.6869624     1.9258021
C           5.1514266    -1.1033046     1.7844438
H           5.6696516    -1.6183158     2.5890256
C           4.1007412    -1.7424595     1.1327604
H           3.7982498    -2.7428827     1.4345651
C           3.4197770    -1.1022514     0.0855201
C           3.8059034     0.1908481    -0.2901854
H           3.2997199     0.6980834    -1.1041884
C           4.8552188     0.8244975     0.3765947
H           5.1442448     1.8265092     0.0703974
C           0.8892987    -1.6691860    -3.7433323
H           0.8186687    -2.1807876    -4.6965804
N           1.7334997    -2.1750177    -2.7808362
C           1.7257622    -1.4259541    -1.7132346
S           0.6107556    -0.0514198    -1.7971832
C           0.2163372    -0.5286914    -3.4217990
H          -0.4468013     0.0630476    -4.0374629
20
103_C9H8N2S_8-0-16-17 (-60,) energy =    -855.4533346
N           2.4518140    -1.8069879    -0.6230758
H           2.5791750    -2.8131782    -0.6068902
C           5.5043132     0.2113069     1.4884554
H           6.2862524     0.7177177     2.0463770
C           5.1331524    -1.0952299     1.8156788
H           5.6265339    -1.6157865     2.6321709
C           4.1266315    -1.7425733     1.1061031
H           3.8329375    -2.7550237     1.3744338
C           3.4763388    -1.0958655     0.0419972
C           3.8518974     0.2124946    -0.2916474
H           3.3780591     0.7254518    -1.1206789
C           4.8565981     0.8539944     0.4340500
H           5.1370914     1.8675116     0.1595295
C           0.7337004    -1.7228335    -3.6981964
H           0.5209519    -2.2903081    -4.5972694
N           1.6037924    -2.2530653    -2.7726839
C           1.7742365    -1.4329021    -1.7710038
S           0.8199524     0.0577918    -1.8779892
C           0.2211663    -0.4929278    -3.4186468
H          -0.4244554     0.1287099    -4.0230060
20
103_C9H8N2S_8-0-16-17 (-45,) energy =    -855.4546583
N           2.5681557    -1.8286943    -0.7309941
H           2.6776473    -2.8356949    -0.6975749
C           5.4619396     0.2288351     1.5503667
H           6.2040714     0.7447559     2.1521601
C           5.1017969    -1.0887786     1.8447332
H           5.5642798    -1.6088337     2.6793778
C           4.1447476    -1.7470630     1.0799254
H           3.8582834    -2.7678050     1.3234531
C           3.5330619    -1.1011366    -0.0085994
C           3.9014948     0.2174167    -0.3116187
H           3.4683963     0.7296172    -1.1626918
C           4.8554369     0.8696223     0.4708503
H           5.1298444     1.8908181     0.2198412
C           0.6093412    -1.7651400    -3.6478616
H           0.2753183    -2.3660192    -4.4864573
N           1.5029798    -2.3157126    -2.7580766
C           1.8212461    -1.4544661    -1.8274773
S           1.0023994     0.1119785    -1.9691993
C           0.2272206    -0.4799353    -3.4164125
H          -0.4110125     0.1606248    -4.0084115
20
103_C9H8N2S_8-0-16-17 (-30,) energy =    -855.4554355
N           2.6771452    -1.8403888    -0.8341836
H           2.7542624    -2.8483089    -0.7705078
C           5.4166731     0.2412060     1.6039927
H           6.1204028     0.7629861     2.2455029
C           5.0673769    -1.0861950     1.8663964
H           5.4998321    -1.6080022     2.7158827
C           4.1585965    -1.7516636     1.0511716
H           3.8797428    -2.7799855     1.2703942
C           3.5841427    -1.1033798    -0.0570563
C           3.9461765     0.2242378    -0.3299857
H           3.5524356     0.7370937    -1.1992680
C           4.8505231     0.8834704     0.5038158
H           5.1193608     1.9114864     0.2758264
C           0.5069451    -1.7846358    -3.5909502
H           0.0697918    -2.4052381    -4.3654083
N           1.4173399    -2.3524133    -2.7299599
C           1.8592767    -1.4667975    -1.8742931
S           1.1583656     0.1498804    -2.0637773
C           0.2360833    -0.4634309    -3.4151782
H          -0.4004532     0.1892918    -3.9953278
20
103_C9H8N2S_8-0-16-17 (-15,) energy =    -855.4557659
N           2.7921091    -1.8478517    -0.9423013
H           2.8329785    -2.8548734    -0.8439654
C           5.3647610     0.2538084     1.6524648
H           6.0271893     0.7808186     2.3325170
C           5.0239995    -1.0811003     1.8863770
H           5.4212769    -1.6033225     2.7525968
C           4.1674142    -1.7530579     1.0215480
H           3.8945347    -2.7872760     1.2195653
C           3.6371847    -1.1037454    -0.1082188
C           3.9950863     0.2307226    -0.3540998
H           3.6446041     0.7424388    -1.2422706
C           4.8453508     0.8966162     0.5297308
H           5.1107596     1.9298881     0.3226620
C           0.4281179    -1.7941083    -3.5321992
H          -0.0968628    -2.4247827    -4.2412529
N           1.3576455    -2.3733714    -2.6998574
C           1.9016949    -1.4747160    -1.9192571
S           1.2919989     0.1713018    -2.1562010
C           0.2454618    -0.4521766    -3.4105845
H          -0.3972355     0.2076164    -3.9755789
20
103_C9H8N2S_8-0-16-17 (0,) energy =    -855.4557423
N           2.0215854    -0.6663910    -0.3015105
H           1.3179011    -0.7176351     0.4253531
C           5.9845013    -0.6257803     1.1338598
H           6.9996871    -0.6203023     1.5191039
C           4.9156136    -0.9864582     1.9584653
H           5.0931853    -1.2646965     2.9937850
C           3.6164309    -1.0045588     1.4628416
H           2.7914788    -1.3029767     2.1060333
C           3.3562578    -0.6513287     0.1265353
C           4.4270146    -0.2657588    -0.6947468
H           4.2518795     0.0687202    -1.7102136
C           5.7274114    -0.2667344    -0.1885514
H           6.5439168     0.0328606    -0.8400557
C          -0.1836398    -1.0676134    -2.9996295
H          -1.2353939    -1.1063987    -3.2612718
N           0.1586061    -0.8482273    -1.6853551
C           1.4596461    -0.8293935    -1.5450228
S           2.3659140    -1.0828645    -3.0441517
C           0.8375908    -1.2164423    -3.8846266
H           0.8042290    -1.3768092    -4.9526499
20
103_C9H8N2S_8-0-16-17 (15,) energy =    -855.4557659
N           2.0215071    -0.8201157    -0.2959256
H           1.3146858    -0.8302195     0.4291498
C           5.9759172    -0.5604142     1.1405704
H           6.9890428    -0.5008997     1.5266486
C           4.9208773    -0.9429361     1.9732664
H           5.1070034    -1.1835094     3.0165130
C           3.6251060    -1.0294404     1.4765893
H           2.8120316    -1.3433838     2.1274585
C           3.3528517    -0.7242436     0.1305375
C           4.4090778    -0.3208926    -0.7007570
H           4.2242293    -0.0301391    -1.7278072
C           5.7066687    -0.2513029    -0.1918994
H           6.5114803     0.0627491    -0.8511563
C          -0.1903555    -0.9695609    -3.0133221
H          -1.2384234    -0.9028937    -3.2839169
N           0.1621086    -0.7793044    -1.6972933
C           1.4580784    -0.8830872    -1.5469624
S           2.3458037    -1.2336321    -3.0390443
C           0.8187290    -1.2165751    -3.8906283
H           0.7787451    -1.3604638    -4.9608165
20
103_C9H8N2S_8-0-16-17 (30,) energy =    -855.4554355
N           2.0304183    -0.9778036    -0.2916226
H           1.3216276    -0.9378547     0.4308210
C           5.9649886    -0.4892357     1.1447661
H           6.9731046    -0.3732088     1.5311150
C           4.9257953    -0.8967536     1.9855179
H           5.1191371    -1.0996320     3.0354640
C           3.6366945    -1.0552488     1.4891106
H           2.8358111    -1.3875131     2.1459596
C           3.3552220    -0.7977524     0.1352614
C           4.3949282    -0.3737199    -0.7057712
H           4.2016563    -0.1282708    -1.7431264
C           5.6863144    -0.2304167    -0.1964170
H           6.4784804     0.0998090    -0.8631209
C          -0.1778780    -0.8716363    -3.0164703
H          -1.2123847    -0.6958894    -3.2902300
N           0.1890524    -0.7146898    -1.6999505
C           1.4677669    -0.9446379    -1.5456684
S           2.3170799    -1.3949122    -3.0345433
C           0.8039012    -1.2205629    -3.8906579
H           0.7538174    -1.3498427    -4.9623750
20
103_C9H8N2S_8-0-16-17 (45,) energy =    -855.4546583
N           2.0427328    -1.1278284    -0.2900927
H           1.3338397    -1.0436642     0.4293115
C           5.9489285    -0.4198487     1.1425328
H           6.9497554    -0.2487673     1.5274555
C           4.9280211    -0.8564167     1.9908348
H           5.1283294    -1.0267975     3.0452666
C           3.6481823    -1.0844269     1.4966316
H           2.8615798    -1.4382964     2.1594396
C           3.3585575    -0.8680559     0.1381150
C           4.3795422    -0.4195987    -0.7119571
H           4.1777990    -0.2159825    -1.7569877
C           5.6619099    -0.2051803    -0.2048153
H           6.4401278     0.1442450    -0.8781835
C          -0.1468048    -0.7570474    -3.0136115
H          -1.1532351    -0.4615122    -3.2886150
N           0.2400500    -0.6317968    -1.6990419
C           1.4835924    -1.0041054    -1.5439868
S           2.2672709    -1.5743476    -3.0289163
C           0.7868959    -1.2262129    -3.8850603
H           0.7210657    -1.3489261    -4.9568483
20
103_C9H8N2S_8-0-16-17 (60,) energy =    -855.4533346
N           2.0618742    -1.2867479    -0.2957186
H           1.3529002    -1.1778388     0.4214958
C           5.9236962    -0.3472423     1.1372820
H           6.9130319    -0.1172784     1.5213250
C           4.9224181    -0.8135916     1.9927552
H           5.1267380    -0.9486268     3.0515671
C           3.6565299    -1.1152154     1.5006311
H           2.8851544    -1.4907311     2.1694222
C           3.3628480    -0.9441270     0.1375783
C           4.3643003    -0.4703238    -0.7207767
H           4.1564291    -0.3120970    -1.7727725
C           5.6327033    -0.1803217    -0.2161630
H           6.3963000     0.1890304    -0.8956880
C          -0.0857508    -0.6303457    -3.0108993
H          -1.0441438    -0.2037671    -3.2850075
N           0.3238881    -0.5465208    -1.6994312
C           1.5073273    -1.0768590    -1.5468039
S           2.1920967    -1.7715525    -3.0276026
C           0.7732866    -1.2291364    -3.8809637
H           0.6838597    -1.3491651    -4.9515276
20
103_C9H8N2S_8-0-16-17 (75,) energy =    -855.4514816
N           2.0730519    -1.4377022    -0.2956015
H           1.3659153    -1.3286390     0.4244225
C           5.8830572    -0.2748472     1.1233424
H           6.8598119     0.0120367     1.5013753
C           4.9089562    -0.7793547     1.9881173
H           5.1223534    -0.8878237     3.0482311
C           3.6584478    -1.1521729     1.5039841
H           2.9086716    -1.5561839     2.1807738
C           3.3548660    -1.0152787     0.1403902
C           4.3288577    -0.5060397    -0.7281546
H           4.1100850    -0.3821265    -1.7830924
C           5.5818378    -0.1438469    -0.2321437
H           6.3249881     0.2526325    -0.9190584
C          -0.0002144    -0.4832902    -2.9973260
H          -0.8814537     0.0857718    -3.2711731
N           0.4349241    -0.4435815    -1.6919459
C           1.5198643    -1.1512511    -1.5401652
S           2.0583771    -1.9813851    -3.0100333
C           0.7423136    -1.2300396    -3.8621995
H           0.6170835    -1.3555850    -4.9287384
20
103_C9H8N2S_8-0-16-17 (90,) energy =    -855.4494044
N           2.0809038    -1.5733377    -0.2882026
H           1.3765609    -1.5047641     0.4398385
C           5.8338254    -0.2025997     1.1013793
H           6.7975784     0.1371393     1.4689167
C           4.8982726    -0.7593007     1.9764586
H           5.1292718    -0.8564661     3.0340468
C           3.6635503    -1.1984684     1.5065224
H           2.9439486    -1.6422024     2.1912426
C           3.3384545    -1.0774972     0.1469482
C           4.2736614    -0.5165164    -0.7320884
H           4.0349159    -0.4073276    -1.7848487
C           5.5109352    -0.0875873    -0.2507592
H           6.2242564     0.3483019    -0.9454488
C           0.1469630    -0.3345797    -2.9993799
H          -0.6090759     0.3855982    -3.2909732
N           0.6036685    -0.3285463    -1.7012893
C           1.5242850    -1.2338890    -1.5266086
S           1.8608628    -2.2132760    -2.9599222
C           0.7105491    -1.2545158    -3.8349020
H           0.5314408    -1.4060122    -4.8905270
20
103_C9H8N2S_8-0-16-17 (105,) energy =    -855.4501651
N           1.8473876    -1.0549180    -0.0903942
H           1.4513814    -1.7842469     0.4910632
C           5.8620578    -0.2778103     0.9755289
H           6.8907683    -0.0785743     1.2610719
C           5.0608425    -1.1110426     1.7577896
H           5.4620258    -1.5700758     2.6575479
C           3.7422611    -1.3706747     1.3902342
H           3.1260870    -2.0273415     2.0018074
C           3.2047197    -0.7915669     0.2318497
C           4.0001913     0.0580181    -0.5484001
H           3.5749924     0.5299347    -1.4265624
C           5.3213250     0.3002756    -0.1746006
H           5.9302734     0.9579463    -0.7894926
C           0.8158517    -0.3922055    -3.4226582
H           0.6501555     0.3881076    -4.1568405
N           1.2502283    -0.0361161    -2.1663283
C           1.3680819    -1.0793854    -1.3972044
S           0.9891836    -2.6189409    -2.2074783
C           0.5897377    -1.7192887    -3.6381094
H           0.1926584    -2.2024918    -4.5200740
20
103_C9H8N2S_8-0-16-17 (120,) energy =    -855.4523564
N           1.9022388    -1.1247429    -0.1343824
H           1.5110502    -1.8580644     0.4437876
C           5.8616289    -0.2239043     1.0278469
H           6.8767532     0.0042633     1.3392691
C           5.0727976    -1.0992634     1.7762653
H           5.4702882    -1.5629429     2.6752219
C           3.7721378    -1.3944953     1.3751078
H           3.1660007    -2.0844291     1.9596402
C           3.2397638    -0.8104337     0.2160689
C           4.0211598     0.0821794    -0.5300387
H           3.5985589     0.5549987    -1.4081556
C           5.3255975     0.3587487    -0.1218295
H           5.9248292     1.0487293    -0.7102906
C           0.8935579    -0.4165225    -3.4597277
H           0.8397837     0.3500560    -4.2245690
N           1.4326650    -0.0905969    -2.2351080
C           1.3959312    -1.1085378    -1.4239232
S           0.7184292    -2.5884790    -2.1452756
C           0.4284618    -1.6880103    -3.6064373
H          -0.0822612    -2.1303037    -4.4501950
20
103_C9H8N2S_8-0-16-17 (135,) energy =    -855.4543480
N           1.9665172    -1.2226065    -0.2012880
H           1.5775065    -1.9582454     0.3739116
C           5.8472922    -0.1637700     1.0775532
H           6.8427347     0.1025004     1.4206656
C           5.0690893    -1.0695254     1.8010560
H           5.4551175    -1.5188229     2.7121970
C           3.7940400    -1.4120262     1.3595817
H           3.1964182    -2.1243979     1.9257866
C           3.2755421    -0.8477219     0.1833635
C           4.0462450     0.0740020    -0.5390966
H           3.6353458     0.5272372    -1.4320640
C           5.3257390     0.3986324    -0.0883074
H           5.9168144     1.1108433    -0.6582561
C           0.9345984    -0.4470614    -3.5011160
H           0.9630645     0.2974630    -4.2888206
N           1.5795139    -0.1752110    -2.3139346
C           1.4293179    -1.1563873    -1.4704097
S           0.4914377    -2.5304339    -2.1048844
C           0.2746665    -1.6336870    -3.5853879
H          -0.3321751    -2.0196442    -4.3919983
20
103_C9H8N2S_8-0-16-17 (150,) energy =    -855.4558989
N           2.0379796    -1.3343568    -0.2832554
H           1.6459620    -2.0668890     0.2925951
C           5.8195839    -0.1017502     1.1214528
H           6.7903181     0.2067672     1.4983181
C           5.0513424    -1.0320683     1.8246593
H           5.4200223    -1.4576073     2.7541884
C           3.8083128    -1.4276246     1.3402113
H           3.2180512    -2.1570555     1.8923082
C           3.3110102    -0.8946857     0.1392650
C           4.0728653     0.0489467    -0.5653314
H           3.6814221     0.4726457    -1.4804979
C           5.3201345     0.4284580    -0.0685576
H           5.9041318     1.1575628    -0.6242761
C           0.9573563    -0.4693646    -3.5423440
H           1.0471481     0.2497055    -4.3489135
N           1.7006895    -0.2709562    -2.3980603
C           1.4651214    -1.2113077    -1.5273181
S           0.3048927    -2.4473796    -2.0731679
C           0.1391844    -1.5545799    -3.5659508
H          -0.5484323    -1.8747335    -4.3354321
20
103_C9H8N2S_8-0-16-17 (165,) energy =    -855.4568834
N           2.1231465    -1.4608920    -0.3627827
H           1.7197104    -2.1800354     0.2210139
C           5.7867098    -0.0431307     1.1680901
H           6.7277229     0.3115794     1.5782111
C           5.0309020    -0.9963998     1.8541556
H           5.3790854    -1.3927464     2.8042555
C           3.8260245    -1.4502880     1.3274753
H           3.2443727    -2.1951934     1.8679755
C           3.3541873    -0.9551880     0.0995265
C           4.1060363     0.0073659    -0.5910885
H           3.7385486     0.3956258    -1.5310847
C           5.3139406     0.4478908    -0.0491033
H           5.8894073     1.1922349    -0.5934170
C           0.9780814    -0.4940856    -3.5688565
H           1.1130110     0.1968705    -4.3935352
N           1.8087020    -0.3806359    -2.4734947
C           1.5089362    -1.2764916    -1.5755224
S           0.1634626    -2.3540281    -2.0261630
C           0.0322302    -1.4685241    -3.5287468
H          -0.7238774    -1.7183230    -4.2588765
20
103_C9H8N2S_8-0-16-17 (180,) energy =    -855.4572154
N           2.2240517    -1.5893780    -0.4307752
H           1.8025162    -2.2829585     0.1705314
C           5.7535974     0.0226393     1.2158459
H           6.6607074     0.4265288     1.6557694
C           5.0155092    -0.9539078     1.8884288
H           5.3429973    -1.3183060     2.8584620
C           3.8538673    -1.4702511     1.3238644
H           3.2847629    -2.2313339     1.8551037
C           3.4082339    -1.0162473     0.0702181
C           4.1457530    -0.0352214    -0.6102304
H           3.8037353     0.3141770    -1.5746175
C           5.3084844     0.4707013    -0.0279996
H           5.8720352     1.2302485    -0.5637060
C           1.0019565    -0.5280554    -3.5772116
H           1.1673411     0.1284096    -4.4242383
N           1.9084648    -0.5015784    -2.5377391
C           1.5630534    -1.3459752    -1.6066161
S           0.0678049    -2.2532154    -1.9471891
C          -0.0450928    -1.3858161    -3.4624474
H          -0.8602781    -1.5662158    -4.1480339
