31
217_C11H15NO3S_4-5-26-27 (-165,) energy =   -1106.7470586
C           1.0862792    -1.5134121    -0.2779922
H           0.5384468    -2.3361093    -0.7478087
H           1.0709984    -0.6483785    -0.9477211
S           2.8060724    -2.0723574    -0.2108013
N           3.5024453    -0.6885429     0.5740766
C           4.9988887    -0.7640534     0.5639347
H           5.3320005    -1.8079808     0.6243484
H           5.3124124    -0.2962796     1.5053664
C           2.9061864    -0.4757415     1.9213226
C           1.4202308    -0.1126963     1.8203649
H           1.0383863     0.0608337     2.8332399
C           0.5731876    -1.1920241     1.1301551
H          -0.4686913    -0.8604140     1.0516239
H           0.5759870    -2.1124070     1.7248463
H           1.3256960     0.8361348     1.2757672
H           3.4548716     0.3574912     2.3705989
H           3.0557524    -1.3615631     2.5548016
O           2.8772897    -3.2370037     0.6850801
O           3.3804997    -2.1373310    -1.5527108
C           7.1888747     1.3007921    -2.5475811
H           7.7594947     1.8263301    -3.3088026
C           5.8562560     1.6339315    -2.3352142
H           5.3672665     2.4136263    -2.9112196
C           5.1014808     0.9720688    -1.3571258
O           3.8134527     1.3833245    -1.1869028
H           3.4051237     0.7608515    -0.5458578
C           5.6864289    -0.0601280    -0.5954021
C           7.0330760    -0.3701990    -0.8250639
H           7.4932021    -1.1621442    -0.2362420
C           7.7888493     0.2929646    -1.7880397
H           8.8286629     0.0232067    -1.9469718
31
217_C11H15NO3S_4-5-26-27 (-150,) energy =   -1106.7484415
C           1.1506149    -1.5545464    -0.2741108
H           0.6709055    -2.3972097    -0.7816438
H           1.0852234    -0.6706294    -0.9154013
S           2.9049254    -1.9953535    -0.1998656
N           3.4972161    -0.5925196     0.6432901
C           4.9959405    -0.5852679     0.7003329
H           5.3807496    -1.5840986     0.9445946
H           5.2299267     0.0547623     1.5607939
C           2.8574619    -0.4735814     1.9839117
C           1.3531969    -0.2049289     1.8688177
H           0.9461997    -0.0890545     2.8801963
C           0.5919098    -1.3159343     1.1319750
H          -0.4686108    -1.0527573     1.0436352
H           0.6471092    -2.2523907     1.6983984
H           1.2034390     0.7521119     1.3517593
H           3.3416455     0.3743460     2.4780640
H           3.0531984    -1.3721848     2.5860846
O           3.0490567    -3.1791828     0.6621629
O           3.4846571    -1.9838796    -1.5407161
C           7.1679527     1.1166729    -2.6205586
H           7.7343716     1.5649172    -3.4327111
C           5.9095388     1.6193442    -2.3024403
H           5.4759693     2.4518838    -2.8479597
C           5.1668565     1.0556160    -1.2593631
O           3.9514854     1.6074533    -0.9780098
H           3.4820769     0.9730867    -0.3935641
C           5.6852032    -0.0347785    -0.5314919
C           6.9489069    -0.5260777    -0.8752507
H           7.3510544    -1.3707868    -0.3192974
C           7.6952333     0.0368687    -1.9088908
H           8.6723567    -0.3659939    -2.1581687
31
217_C11H15NO3S_4-5-26-27 (-135,) energy =   -1106.7487046
C           1.2064459    -1.6180728    -0.3069293
H           0.7955222    -2.4868384    -0.8306630
H           1.0858540    -0.7336966    -0.9393086
S           2.9875058    -1.9365554    -0.2228310
N           3.4801638    -0.5137655     0.6516313
C           4.9745580    -0.4293294     0.7733014
H           5.3887664    -1.3819094     1.1293633
H           5.1348083     0.3058698     1.5721606
C           2.8050298    -0.4557303     1.9800858
C           1.2892212    -0.2816710     1.8457844
H           0.8627088    -0.1982376     2.8523281
C           0.6138825    -1.4353746     1.0925270
H          -0.4614987    -1.2467046     0.9936135
H           0.7286193    -2.3709920     1.6515717
H           1.0850553     0.6666135     1.3312445
H           3.2262845     0.4132185     2.4954639
H           3.0470504    -1.3485680     2.5744129
O           3.2092245    -3.1224272     0.6205301
O           3.5613951    -1.8686172    -1.5645100
C           7.1379988     1.0206314    -2.6600195
H           7.7000219     1.4113137    -3.5043411
C           5.9783922     1.6738305    -2.2471748
H           5.6149725     2.5622279    -2.7544159
C           5.2463123     1.1776071    -1.1657082
O           4.1119962     1.8408972    -0.7905843
H           3.5622600     1.1995112    -0.2926714
C           5.6844948     0.0289467    -0.4786146
C           6.8331611    -0.6267767    -0.9286024
H           7.1594974    -1.5285620    -0.4151646
C           7.5666278    -0.1384206    -2.0095166
H           8.4595898    -0.6592571    -2.3420064
31
217_C11H15NO3S_4-5-26-27 (-120,) energy =   -1106.7469877
C           1.2849465    -1.6886410    -0.3310328
H           0.9223913    -2.5833263    -0.8468101
H           1.1394823    -0.8214558    -0.9815979
S           3.0764260    -1.9300340    -0.2114687
N           3.4940732    -0.4752218     0.6446286
C           4.9790426    -0.3193039     0.8108591
H           5.4159627    -1.2323674     1.2376414
H           5.0831713     0.4713771     1.5630942
C           2.7879167    -0.4235574     1.9581288
C           1.2694958    -0.3111505     1.7935706
H           0.8207985    -0.2241128     2.7901925
C           0.6567522    -1.5062160     1.0521986
H          -0.4235459    -1.3654720     0.9294292
H           0.8001256    -2.4253319     1.6317304
H           1.0383139     0.6172236     1.2547801
H           3.1645718     0.4687512     2.4683210
H           3.0516991    -1.2965406     2.5726522
O           3.3338125    -3.0919502     0.6558391
O           3.6615283    -1.8682374    -1.5489155
C           7.1127479     0.9677705    -2.7002087
H           7.6640218     1.3189668    -3.5685780
C           6.0749868     1.7448891    -2.1871184
H           5.7897666     2.6875405    -2.6438642
C           5.3598175     1.2921649    -1.0774275
O           4.3152900     2.0477114    -0.6112169
H           3.6815814     1.4254554    -0.2017019
C           5.7096656     0.0855839    -0.4447056
C           6.7122172    -0.7052900    -1.0103030
H           6.9485571    -1.6640150    -0.5549709
C           7.4245668    -0.2671374    -2.1263973
H           8.2121697    -0.8854110    -2.5467320
31
217_C11H15NO3S_4-5-26-27 (-105,) energy =   -1106.7432673
C           1.3285496    -1.8027779    -0.3085513
H           1.0092221    -2.7327947    -0.7892667
H           1.1611512    -0.9712671    -0.9990652
S           3.1260495    -1.9689838    -0.1558244
N           3.4781364    -0.4667418     0.6365058
C           4.9500941    -0.2371294     0.8260416
H           5.4117427    -1.1115700     1.3061788
H           5.0084210     0.5900782     1.5412384
C           2.7497892    -0.3886964     1.9373106
C           1.2309434    -0.3356065     1.7493427
H           0.7655929    -0.2193270     2.7353312
C           0.6714072    -1.5835082     1.0551430
H          -0.4112393    -1.4880598     0.9110189
H           0.8388459    -2.4699310     1.6776416
H           0.9767635     0.5585205     1.1650138
H           3.0866425     0.5356540     2.4176660
H           3.0332700    -1.2257548     2.5922600
O           3.4158107    -3.0838689     0.7625910
O           3.7196662    -1.9516742    -1.4913387
C           7.1044443     0.9444761    -2.7133052
H           7.6602426     1.2667720    -3.5899657
C           6.2145159     1.8267424    -2.1027737
H           6.0411493     2.8244984    -2.4938225
C           5.4930074     1.4063340    -0.9847961
O           4.5693870     2.2663346    -0.4384160
H           3.8373955     1.7191717    -0.1022204
C           5.7072965     0.1349446    -0.4243551
C           6.5431704    -0.7590971    -1.0991154
H           6.6583294    -1.7688330    -0.7142785
C           7.2556302    -0.3571314    -2.2278368
H           7.9188282    -1.0558482    -2.7290076
31
217_C11H15NO3S_4-5-26-27 (-90,) energy =   -1106.7456161
C           1.3072011    -2.3705765     0.9180209
H           0.8538941    -3.2478663     1.3897687
H           1.3730729    -2.5352929    -0.1608787
S           3.0101817    -2.3346398     1.5281043
N           3.5406687    -0.9058780     0.7442222
C           5.0194305    -0.7654961     0.7955465
H           5.4315313    -1.7600948     0.6170664
H           5.3429936    -0.4763045     1.8119426
C           2.7563603     0.2808566     1.1528818
C           1.2956079     0.1624039     0.7022585
H           0.7632914     1.0717202     1.0055302
C           0.5818052    -1.0689953     1.2777995
H          -0.4440114    -1.1263939     0.8947987
H           0.5153057    -0.9924296     2.3691727
H           1.2739633     0.1236058    -0.3941105
H           3.2123698     1.1435610     0.6628792
H           2.8169222     0.4367356     2.2427324
O           2.9653327    -2.1518203     2.9899647
O           3.7740592    -3.4500088     0.9590063
C           6.6173507     1.8731438    -2.2380926
H           7.0265403     2.5303677    -3.0006626
C           6.2987117     2.3901537    -0.9873334
H           6.4549937     3.4375700    -0.7491768
C           5.7759587     1.5536583     0.0058447
O           5.4979148     2.1508321     1.2095189
H           5.2747347     1.4744828     1.8671763
C           5.5501167     0.1887133    -0.2524008
C           5.9059748    -0.3089800    -1.5148085
H           5.7538669    -1.3676224    -1.7112267
C           6.4265039     0.5146784    -2.5081491
H           6.6885158     0.1027428    -3.4780564
31
217_C11H15NO3S_4-5-26-27 (-75,) energy =   -1106.7462310
C           1.3599520    -2.4027015     0.8776295
H           0.8992358    -3.2751533     1.3511738
H           1.4790437    -2.5947519    -0.1921682
S           3.0324788    -2.3217537     1.5642444
N           3.5694483    -0.9030469     0.7670164
C           5.0340282    -0.7081514     0.8942674
H           5.4914839    -1.6934624     0.7795912
H           5.2920685    -0.3689585     1.9125644
C           2.7469982     0.2799673     1.1091186
C           1.3126072     0.1252032     0.5922625
H           0.7496272     1.0309887     0.8468525
C           0.5958629    -1.1053466     1.1672375
H          -0.4097809    -1.1933465     0.7392047
H           0.4770072    -1.0010613     2.2518747
H           1.3430409     0.0583325    -0.5025308
H           3.2197454     1.1363875     0.6207478
H           2.7543936     0.4617745     2.1959567
O           2.9190079    -2.1046043     3.0175056
O           3.8423349    -3.4344148     1.0569501
C           6.5348849     1.8700468    -2.2368512
H           6.9144573     2.5121029    -3.0271826
C           6.4142419     2.3718353    -0.9465659
H           6.6879547     3.3943358    -0.7061616
C           5.9278912     1.5556702     0.0831488
O           5.8215380     2.1476447     1.3146549
H           5.5506564     1.4904958     1.9733771
C           5.5656440     0.2211561    -0.1755414
C           5.6965747    -0.2578420    -1.4878286
H           5.4115304    -1.2875911    -1.6895434
C           6.1740987     0.5475191    -2.5160943
H           6.2696015     0.1505070    -3.5222635
31
217_C11H15NO3S_4-5-26-27 (-60,) energy =   -1106.7459188
C           1.4112593    -2.4594444     0.8828658
H           0.9616976    -3.3230306     1.3826511
H           1.5791004    -2.7007349    -0.1703098
S           3.0514171    -2.2855049     1.6279298
N           3.5708169    -0.8885971     0.7817012
C           5.0167834    -0.6269486     0.9640102
H           5.5197304    -1.5969274     0.9209971
H           5.2044259    -0.2276005     1.9749280
C           2.6945895     0.2799840     1.0296574
C           1.2891297     0.0476325     0.4654478
H           0.6852451     0.9438949     0.6504661
C           0.5924129    -1.1775652     1.0755769
H          -0.3917104    -1.3236418     0.6146269
H           0.4267613    -1.0230992     2.1480184
H           1.3659127    -0.0734548    -0.6224789
H           3.1616545     1.1250341     0.5158918
H           2.6526926     0.5164693     2.1045794
O           2.8733019    -2.0013052     3.0628941
O           3.9183100    -3.3912969     1.2078924
C           6.5090909     1.8771511    -2.2346035
H           6.8842973     2.4993637    -3.0426830
C           6.6119363     2.3227065    -0.9230230
H           7.0579617     3.2825247    -0.6821342
C           6.1347345     1.5320582     0.1319407
O           6.2759950     2.0695774     1.3834690
H           5.9645508     1.4407333     2.0513810
C           5.5513544     0.2783285    -0.1276023
C           5.4588870    -0.1458189    -1.4624944
H           5.0005177    -1.1110004    -1.6613825
C           5.9291132     0.6344888    -2.5126915
H           5.8485349     0.2798856    -3.5359293
31
217_C11H15NO3S_4-5-26-27 (-45,) energy =   -1106.7456504
C           1.5044859    -2.5226398     0.9289214
H           1.0834619    -3.3854961     1.4541796
H           1.7182659    -2.8018315    -0.1064464
S           3.1086192    -2.2306269     1.7142695
N           3.5836035    -0.8478011     0.8185703
C           5.0025565    -0.4974899     1.0395882
H           5.5562231    -1.4394536     1.1040451
H           5.1084947     0.0010496     2.0179679
C           2.6409390     0.2838566     0.9863055
C           1.2677149    -0.0462342     0.3928089
H           0.6135652     0.8244944     0.5196205
C           0.6153593    -1.2781827     1.0375389
H          -0.3444876    -1.4964264     0.5544433
H           0.4073412    -1.0850367     2.0962054
H           1.3834007    -0.2104758    -0.6860836
H           3.0820680     1.1278419     0.4487335
H           2.5547766     0.5646505     2.0474954
O           2.8702057    -1.8889932     3.1275595
O           4.0428784    -3.3085908     1.3749381
C           6.5378977     1.8833325    -2.2378721
H           6.9235376     2.4782219    -3.0614482
C           6.8357437     2.2473067    -0.9304326
H           7.4486987     3.1150654    -0.7078866
C           6.3496606     1.4891064     0.1430618
O           6.7086484     1.9306522     1.3892886
H           6.4004491     1.3095235     2.0653243
C           5.5457725     0.3577386    -0.0911259
C           5.2675355     0.0080756    -1.4210909
H           4.6477670    -0.8657607    -1.5996156
C           5.7516709     0.7548224    -2.4904415
H           5.5201632     0.4608471    -3.5099514
31
217_C11H15NO3S_4-5-26-27 (-30,) energy =   -1106.7454795
C           1.5567169    -2.5585150     0.9611280
H           1.1620938    -3.4232394     1.5035548
H           1.8173132    -2.8616424    -0.0566277
S           3.1176555    -2.1592659     1.7845320
N           3.5532130    -0.7880025     0.8511693
C           4.9424955    -0.3575468     1.0977383
H           5.5313358    -1.2645396     1.2744063
H           4.9803882     0.2405227     2.0250002
C           2.5519526     0.3015356     0.9507941
C           1.2143369    -0.1161252     0.3316405
H           0.5149487     0.7245304     0.4108788
C           0.6043442    -1.3574555     0.9996429
H          -0.3281976    -1.6399217     0.4968230
H           0.3546695    -1.1397334     2.0444103
H           1.3678132    -0.3094633    -0.7377936
H           2.9678832     1.1474024     0.3966152
H           2.4217763     0.6134254     1.9985012
O           2.8154296    -1.7773202     3.1748672
O           4.1139808    -3.2010091     1.5171730
C           6.5857458     1.8691591    -2.2374150
H           7.0012625     2.4324414    -3.0686145
C           7.0302766     2.1243485    -0.9446722
H           7.7883774     2.8743077    -0.7417942
C           6.5065265     1.4039491     0.1347402
O           7.0158650     1.7192114     1.3679856
H           6.6721648     1.1118939     2.0390278
C           5.5155780     0.4257089    -0.0718354
C           5.0935895     0.1800795    -1.3851343
H           4.3369698    -0.5821013    -1.5439582
C           5.6158560     0.8893051    -2.4641375
H           5.2695481     0.6792407    -3.4718462
31
217_C11H15NO3S_4-5-26-27 (-15,) energy =   -1106.7449721
C           0.6826974    -0.7034011     1.1636251
H          -0.3318004    -1.1131684     1.1408373
H           0.6643371     0.3226484     0.7861885
S           1.6103260    -1.6727987    -0.0501953
N           3.1427652    -0.9298639     0.1545766
C           4.1013918    -1.3043007    -0.8990301
H           3.5187897    -1.4887861    -1.8100317
H           4.5961846    -2.2542545    -0.6302869
C           3.6632272    -1.0909597     1.5345067
C           2.7903133    -0.3422406     2.5467996
H           3.2214585    -0.4751241     3.5460982
C           1.3296869    -0.8179503     2.5493900
H           0.7386255    -0.2240552     3.2566079
H           1.2734181    -1.8618458     2.8784333
H           2.8284016     0.7308428     2.3189116
H           4.6719150    -0.6686181     1.5312236
H           3.7438850    -2.1572369     1.7953051
O           1.6355021    -3.0720886     0.4092320
O           1.1552309    -1.3623017    -1.4086537
C           7.1223988     1.7092681    -1.6490526
H           7.8921787     2.4520260    -1.8400735
C           7.2863325     0.4123504    -2.1271300
H           8.1664131     0.1208042    -2.6917894
C           6.3017128    -0.5505965    -1.8890952
O           6.5418542    -1.8021444    -2.3968117
H           5.7651584    -2.3683101    -2.2811722
C           5.1417046    -0.2269045    -1.1606299
C           4.9967832     1.0854854    -0.6981803
H           4.0932238     1.3399302    -0.1532486
C           5.9725331     2.0528811    -0.9354676
H           5.8345242     3.0651690    -0.5668881
31
217_C11H15NO3S_4-5-26-27 (0,) energy =   -1106.7438736
C           0.6930543    -0.7135694     1.0249946
H          -0.3194392    -1.1217587     0.9483797
H           0.7017769     0.3038550     0.6246489
S           1.6919765    -1.7109878    -0.1062911
N           3.2087288    -0.9617493     0.1763762
C           4.2324500    -1.3457951    -0.8094578
H           3.6982912    -1.6382306    -1.7231006
H           4.7813339    -2.2359016    -0.4570144
C           3.6426101    -1.0987087     1.5891295
C           2.7117246    -0.3273637     2.5304466
H           3.0787672    -0.4416376     3.5572858
C           1.2518321    -0.7989943     2.4507818
H           0.6200089    -0.1878866     3.1061892
H           1.1707803    -1.8351076     2.7986016
H           2.7673674     0.7411163     2.2847830
H           4.6524145    -0.6822449     1.6419181
H           3.7008205    -2.1599596     1.8747469
O           1.6869765    -3.0991304     0.3862193
O           1.3230034    -1.4337358    -1.4975623
C           7.1290650     1.7436123    -1.7176378
H           7.8737701     2.5006832    -1.9477897
C           7.2207550     0.4872078    -2.3109096
H           8.0201216     0.2411363    -3.0028874
C           6.2681062    -0.4922334    -2.0204712
O           6.4363216    -1.7089193    -2.6320207
H           5.6663832    -2.2750397    -2.4766716
C           5.2072613    -0.2252880    -1.1350250
C           5.1362285     1.0441056    -0.5538984
H           4.3057249     1.2623567     0.1097311
C           6.0824470     2.0287011    -0.8393177
H           6.0004661     3.0094153    -0.3798661
31
217_C11H15NO3S_4-5-26-27 (15,) energy =   -1106.7420862
C           0.7314993    -0.7155040     0.9314916
H          -0.2810562    -1.1092040     0.7998556
H           0.7820692     0.2946931     0.5163665
S           1.7834213    -1.7472900    -0.1180962
N           3.2882408    -1.0116117     0.2442341
C           4.3658908    -1.3944659    -0.6853200
H           3.8771508    -1.8010306    -1.5803468
H           4.9669221    -2.2101508    -0.2518132
C           3.6352597    -1.1384788     1.6814772
C           2.6615784    -0.3394409     2.5547416
H           2.9617666    -0.4464823     3.6038753
C           1.2007554    -0.7868707     2.3904265
H           0.5412802    -0.1544245     2.9964465
H           1.0794673    -1.8156870     2.7479720
H           2.7508145     0.7245675     2.2996543
H           4.6472604    -0.7391489     1.7925033
H           3.6579131    -2.1964670     1.9836557
O           1.7271988    -3.1254809     0.3989038
O           1.5074961    -1.4942302    -1.5354007
C           7.0757330     1.7940341    -1.8101426
H           7.7759783     2.5750461    -2.0937267
C           7.0819876     0.5827964    -2.4958659
H           7.7720139     0.3942141    -3.3123248
C           6.1872582    -0.4286838    -2.1363539
O           6.2820439    -1.6013971    -2.8416106
H           5.5495485    -2.1931075    -2.6161579
C           5.2602550    -0.2345299    -1.0947451
C           5.2790704     0.9892239    -0.4184422
H           4.5520712     1.1595491     0.3690565
C           6.1700592     2.0032964    -0.7688368
H           6.1544598     2.9482608    -0.2337035
31
217_C11H15NO3S_4-5-26-27 (30,) energy =   -1106.7401464
C           0.7688991    -0.6921888     0.8496486
H          -0.2434924    -1.0525670     0.6428477
H           0.8919225     0.3055646     0.4199872
S           1.8670952    -1.7853005    -0.0834210
N           3.3584600    -1.0947314     0.3897015
C           4.4982407    -1.4863966    -0.4655706
H           4.0833315    -2.0501881    -1.3088385
H           5.1460791    -2.1841159     0.0851020
C           3.5840861    -1.2040506     1.8510587
C           2.5712745    -0.3509845     2.6237400
H           2.7768664    -0.4459029     3.6966552
C           1.1128932    -0.7470670     2.3441706
H           0.4308640    -0.0763378     2.8799824
H           0.9216425    -1.7620221     2.7105770
H           2.7231514     0.7026465     2.3558336
H           4.5970965    -0.8378683     2.0401459
H           3.5432241    -2.2547066     2.1762439
O           1.7121416    -3.1464136     0.4585656
O           1.7269350    -1.5618096    -1.5254147
C           6.9482977     1.7982759    -1.8863851
H           7.5817816     2.6071143    -2.2403491
C           6.8627217     0.6198823    -2.6193762
H           7.4149402     0.4839532    -3.5439552
C           6.0532006    -0.4305736    -2.1728946
O           6.0660722    -1.5610386    -2.9480881
H           5.3816688    -2.1813067    -2.6577109
C           5.2998690    -0.3045504    -0.9897802
C           5.4102541     0.8909470    -0.2694914
H           4.8193046     1.0124378     0.6329326
C           6.2169067     1.9398849    -0.7050851
H           6.2724758     2.8587125    -0.1286849
31
217_C11H15NO3S_4-5-26-27 (45,) energy =   -1106.7421743
C           1.2182832    -0.7215456     0.6705176
H           0.2462206    -0.9614703     0.2292208
H           1.4924021     0.3048737     0.4126655
S           2.4188411    -1.7929965    -0.1516860
N           3.8154016    -1.2980503     0.6874404
C           5.0422472    -1.6511039    -0.0693014
H           4.8971695    -2.5306410    -0.7007523
H           5.7789959    -1.9591356     0.6836733
C           3.7460215    -1.6206388     2.1288893
C           2.6486443    -0.7797903     2.7971694
H           2.6149374    -1.0271118     3.8649243
C           1.2535725    -0.9919948     2.1833618
H           0.5283543    -0.3268636     2.6667614
H           0.9168575    -2.0195142     2.3607657
H           2.9267954     0.2786631     2.7160221
H           4.7195097    -1.3622481     2.5564539
H           3.5780737    -2.6949721     2.2957087
O           2.0643058    -3.1872501     0.1639148
O           2.6180749    -1.4130770    -1.5588982
C           6.6601041     1.6575258    -2.3364470
H           7.0905184     2.4783473    -2.9040412
C           6.4608442     0.4234628    -2.9502652
H           6.6946256     0.2652023    -3.9984552
C           5.8947598    -0.6324679    -2.2300444
O           5.6286104    -1.8041898    -2.9054617
H           4.7057663    -2.0497571    -2.7106782
C           5.6045740    -0.4877600    -0.8621635
C           5.7200154     0.7860570    -0.2940003
H           5.4086680     0.9306686     0.7375928
C           6.2621705     1.8510239    -1.0107314
H           6.3692786     2.8250403    -0.5415281
31
217_C11H15NO3S_4-5-26-27 (60,) energy =   -1106.7472020
C           0.9899711    -0.4625245     0.3770103
H           0.0465726    -0.7194835    -0.1139711
H           1.2905222     0.5472028     0.0851059
S           2.2298803    -1.5821750    -0.3107750
N           3.5719148    -1.0700930     0.5874038
C           4.8596206    -1.4455525    -0.0621831
H           4.7505917    -2.3251322    -0.7013421
H           5.5240768    -1.7528910     0.7538537
C           3.4055625    -1.3052987     2.0380262
C           2.2811041    -0.4166755     2.5880832
H           2.1785560    -0.6024046     3.6639323
C           0.9252751    -0.6530585     1.9006206
H           0.1768953     0.0412074     2.3003047
H           0.5683324    -1.6676806     2.1105982
H           2.5774919     0.6324368     2.4638469
H           4.3539187    -1.0330310     2.5103852
H           3.2132726    -2.3665677     2.2556174
O           1.8316392    -2.9591274     0.0239522
O           2.5173828    -1.2522905    -1.7196766
C           6.6883230     1.8195928    -2.2234002
H           7.1690642     2.6289703    -2.7667332
C           6.2612440     0.6865312    -2.9095259
H           6.3691420     0.6002967    -3.9862720
C           5.6274811    -0.3553110    -2.2219095
O           5.1524687    -1.4124788    -2.9545409
H           4.2370653    -1.5921572    -2.6581118
C           5.4976639    -0.3023034    -0.8212936
C           5.8592198     0.8808330    -0.1649151
H           5.6965476     0.9581837     0.9083704
C           6.4645255     1.9330280    -0.8476609
H           6.7605841     2.8318980    -0.3142386
31
217_C11H15NO3S_4-5-26-27 (75,) energy =   -1106.7503823
C           0.8908720    -0.7384255     0.3336184
H          -0.0426605    -1.1513241    -0.0603245
H           1.0841064     0.2324468    -0.1302498
S           2.1957189    -1.8460560    -0.2458661
N           3.5237267    -1.1090047     0.4919659
C           4.8363167    -1.4756127    -0.1222718
H           4.7113382    -2.3121395    -0.8134908
H           5.4738081    -1.8465763     0.6881339
C           3.4333813    -1.0821956     1.9678203
C           2.2574352    -0.2087544     2.4230443
H           2.2223039    -0.2100627     3.5190125
C           0.9037449    -0.6797917     1.8677354
H           0.1067486    -0.0002343     2.1913679
H           0.6589752    -1.6736399     2.2598275
H           2.4475118     0.8232666     2.1027222
H           4.3701379    -0.6486831     2.3284948
H           3.3532296    -2.0997620     2.3800706
O           1.9221874    -3.1895069     0.2879808
O           2.3893172    -1.6883370    -1.7014746
C           6.7700562     1.8551669    -2.0816398
H           7.2695883     2.6825684    -2.5789720
C           6.1213562     0.8875602    -2.8413988
H           6.0862597     0.9462242    -3.9248002
C           5.4621331    -0.1810791    -2.2181059
O           4.8283247    -1.0776926    -3.0271862
H           4.0041504    -1.3940699    -2.6023443
C           5.5096297    -0.3132333    -0.8148548
C           6.1311574     0.6985107    -0.0703195
H           6.1518806     0.6161416     1.0150002
C           6.7643000     1.7750443    -0.6856738
H           7.2547303     2.5370029    -0.0867753
31
217_C11H15NO3S_4-5-26-27 (90,) energy =   -1106.7533571
C           0.8580297    -1.0179966     0.2929935
H          -0.0513278    -1.5681768     0.0330287
H           0.9476373    -0.1392486    -0.3512867
S           2.2256488    -2.1142990    -0.1504857
N           3.5169619    -1.1679385     0.3827064
C           4.8411066    -1.5551128    -0.1870497
H           4.6885899    -2.3363440    -0.9348759
H           5.4484376    -2.0008381     0.6104616
C           3.4821898    -0.8292464     1.8190710
C           2.2494544     0.0164582     2.1593132
H           2.2596359     0.2330761     3.2341034
C           0.9258863    -0.6683677     1.7856821
H           0.0805832    -0.0117473     2.0224945
H           0.7943926    -1.5862734     2.3703985
H           2.3289820     0.9756067     1.6324995
H           4.3865743    -0.2471958     2.0165727
H           3.5231942    -1.7388398     2.4385380
O           2.0686898    -3.3660216     0.6057569
O           2.3682709    -2.1847726    -1.6203114
C           6.8110023     1.8888767    -1.8844709
H           7.3045101     2.7540283    -2.3197236
C           5.9330785     1.1388023    -2.6607237
H           5.7205961     1.4047028    -3.6915460
C           5.2790373     0.0238417    -2.1186827
O           4.4248952    -0.6396315    -2.9426967
H           3.7781351    -1.1891742    -2.4546327
C           5.5530500    -0.3705959    -0.7908796
C           6.4147418     0.4214789    -0.0210282
H           6.6216106     0.1228203     1.0052557
C           7.0508116     1.5415052    -0.5523107
H           7.7289473     2.1289128     0.0595903
31
217_C11H15NO3S_4-5-26-27 (105,) energy =   -1106.7552007
C           0.8414052    -1.1529337     0.2686568
H          -0.0423217    -1.7610959     0.0532149
H           0.8948142    -0.3252149    -0.4437258
S           2.2549457    -2.2221304    -0.0902037
N           3.5028651    -1.1823694     0.3691556
C           4.8518949    -1.5588693    -0.1431275
H           4.7265202    -2.3521985    -0.8854796
H           5.4477400    -1.9828578     0.6745201
C           3.4475937    -0.7241495     1.7718995
C           2.1785520     0.0915422     2.0423069
H           2.1765269     0.3969663     3.0953093
C           0.8887801    -0.6815612     1.7280703
H           0.0133426    -0.0477028     1.9113888
H           0.7979680    -1.5540163     2.3856887
H           2.2159306     1.0063620     1.4377218
H           4.3274098    -0.0901526     1.9163495
H           3.5265898    -1.5762418     2.4650624
O           2.1469490    -3.4212273     0.7541571
O           2.4106511    -2.3886420    -1.5510608
C           6.8320553     1.8821243    -1.8311003
H           7.3260938     2.7485026    -2.2633053
C           5.7919285     1.2716104    -2.5253883
H           5.4610172     1.6431422    -3.4902873
C           5.1372990     0.1541110    -1.9896797
O           4.1349611    -0.3719137    -2.7391492
H           3.6350611    -1.0777936    -2.2819369
C           5.5508027    -0.3653650    -0.7431271
C           6.5926003     0.2741304    -0.0602156
H           6.9118240    -0.1310961     0.8984807
C           7.2398724     1.3894339    -0.5890248
H           8.0509116     1.8629576    -0.0439200
31
217_C11H15NO3S_4-5-26-27 (120,) energy =   -1106.7551304
C           0.8593117    -1.2154996     0.2128108
H          -0.0008257    -1.8562043    -0.0039598
H           0.9048941    -0.4074515    -0.5224552
S           2.3102766    -2.2522374    -0.0880698
N           3.5170585    -1.1650465     0.3697468
C           4.8908691    -1.5150849    -0.0867476
H           4.8070022    -2.3303917    -0.8128689
H           5.4750904    -1.9024646     0.7567883
C           3.4146926    -0.6623627     1.7554834
C           2.1172525     0.1233454     1.9725218
H           2.0836865     0.4630869     3.0143890
C           0.8597808    -0.7004755     1.6577864
H          -0.0397133    -0.0912319     1.8043499
H           0.7838729    -1.5556237     2.3397436
H           2.1396680     1.0182990     1.3382123
H           4.2736735     0.0003365     1.8974893
H           3.5022706    -1.4888857     2.4780109
O           2.2200457    -3.4350316     0.7806538
O           2.5035804    -2.4428887    -1.5416027
C           6.9102926     1.8720911    -1.8442272
H           7.4159326     2.7238048    -2.2918252
C           5.7367174     1.3943760    -2.4193343
H           5.3190379     1.8484250    -3.3126723
C           5.0677707     0.2929300    -1.8680685
O           3.9488982    -0.1144710    -2.5206768
H           3.5566223    -0.9284390    -2.1467469
C           5.5777477    -0.3193601    -0.7013275
C           6.7703945     0.1692476    -0.1539887
H           7.1734450    -0.3192732     0.7313309
C           7.4418125     1.2575815    -0.7080465
H           8.3629209     1.6193399    -0.2610348
31
217_C11H15NO3S_4-5-26-27 (135,) energy =   -1106.7549455
C           0.7857221    -1.6173620     0.3300400
H           0.0384423    -2.4124264     0.4153293
H           0.6084239    -1.0608278    -0.5947159
S           2.3611938    -2.4827386     0.1081993
N           3.4099502    -1.1092544     0.0593566
C           4.7982650    -1.4859571    -0.3449230
H           4.6913247    -2.1874557    -1.1794294
H           5.3100024    -2.0132758     0.4714029
C           3.3401627    -0.3155528     1.3146461
C           1.9586884     0.3213544     1.4904737
H           1.9669218     0.9255433     2.4051393
C           0.8279719    -0.7151259     1.5689218
H          -0.1424892    -0.2135774     1.6617560
H           0.9530843    -1.3430550     2.4585390
H           1.7788180     1.0075938     0.6526736
H           4.1041393     0.4613663     1.2249529
H           3.5997014    -0.9465873     2.1772922
O           2.6209602    -3.2861513     1.3126623
O           2.4133375    -3.1025244    -1.2184081
C           7.1756742     1.8599920    -1.6862284
H           7.7813027     2.6868910    -2.0476825
C           5.8648626     1.7233426    -2.1355865
H           5.4291773     2.4266525    -2.8385235
C           5.0728775     0.6626650    -1.6816449
O           3.7971320     0.5768236    -2.1502579
H           3.3179570    -0.0641444    -1.5830736
C           5.6011225    -0.2756611    -0.7692519
C           6.9140855    -0.1032274    -0.3166082
H           7.3205312    -0.8202926     0.3937068
C           7.7073132     0.9505911    -0.7685753
H           8.7258853     1.0603297    -0.4087245
31
217_C11H15NO3S_4-5-26-27 (150,) energy =   -1106.7542035
C           0.7826382    -1.6615956     0.2629432
H           0.0494089    -2.4711199     0.3329981
H           0.6380442    -1.1325083    -0.6834293
S           2.3851458    -2.4957973     0.1383855
N           3.4014494    -1.0958031     0.1016690
C           4.8148124    -1.4392210    -0.2274399
H           4.7663898    -2.1964623    -1.0178041
H           5.3116171    -1.8971975     0.6388490
C           3.2567667    -0.2749678     1.3346762
C           1.8545915     0.3327725     1.4304609
H           1.8050084     0.9572943     2.3299650
C           0.7453919    -0.7285988     1.4794207
H          -0.2394618    -0.2481527     1.5126567
H           0.8409416    -1.3320201     2.3893915
H           1.7022811     0.9964659     0.5694302
H           4.0065811     0.5175575     1.2604824
H           3.4923102    -0.8805259     2.2216622
O           2.6075638    -3.2581788     1.3762114
O           2.5156303    -3.1494401    -1.1658144
C           7.2156440     1.8238529    -1.7450549
H           7.8293531     2.6261861    -2.1459662
C           5.8510691     1.8051820    -2.0136297
H           5.3812662     2.5725873    -2.6211208
C           5.0430783     0.7759216    -1.5130720
O           3.7200196     0.8095803    -1.8355010
H           3.2824850     0.0753801    -1.3503942
C           5.6078490    -0.2372170    -0.7081130
C           6.9853950    -0.1952390    -0.4570918
H           7.4265900    -0.9797178     0.1547022
C           7.7937875     0.8193934    -0.9644345
H           8.8585199     0.8272568    -0.7514966
31
217_C11H15NO3S_4-5-26-27 (165,) energy =   -1106.7520008
C           0.8136078    -1.7209620     0.1996074
H           0.1043116    -2.5539362     0.2297242
H           0.6998882    -1.1921848    -0.7511726
S           2.4458357    -2.5034550     0.1534698
N           3.4175151    -1.0688433     0.1632011
C           4.8570274    -1.3685917    -0.0700439
H           4.8858076    -2.2056183    -0.7764416
H           5.3284733    -1.7116042     0.8614351
C           3.1842093    -0.2537500     1.3888517
C           1.7584581     0.3029695     1.4243759
H           1.6474942     0.9176932     2.3251149
C           0.6856938    -0.7961582     1.4161898
H          -0.3154158    -0.3495391     1.4032590
H           0.7576462    -1.4008051     2.3274426
H           1.6219481     0.9699895     0.5634624
H           3.9062974     0.5667267     1.3470274
H           3.4037111    -0.8518055     2.2847498
O           2.6351613    -3.2563126     1.4024692
O           2.6600633    -3.1540241    -1.1407562
C           7.2524246     1.7732452    -1.8523103
H           7.8679906     2.5434895    -2.3093019
C           5.8683172     1.8564792    -1.9420501
H           5.3814857     2.6701388    -2.4709454
C           5.0544002     0.8681101    -1.3700450
O           3.7088238     1.0028536    -1.5469181
H           3.2860153     0.2094151    -1.1494304
C           5.6374249    -0.1974190    -0.6519582
C           7.0369776    -0.2713241    -0.6038294
H           7.4951309    -1.1072973    -0.0780209
C           7.8479171     0.6973726    -1.1875962
H           8.9287661     0.6153036    -1.1233409
31
217_C11H15NO3S_4-5-26-27 (180,) energy =   -1106.7490039
C           0.8788261    -1.8028348     0.0952282
H           0.2096639    -2.6677984     0.0516808
H           0.7952706    -1.2419662    -0.8401509
S           2.5461754    -2.5069229     0.1188997
N           3.4463933    -1.0293604     0.2266769
C           4.9111483    -1.2569380     0.0833369
H           5.0360375    -2.1802161    -0.4919089
H           5.3528107    -1.4354362     1.0737685
C           3.1047422    -0.2672288     1.4632078
C           1.6509109     0.2132942     1.4461335
H           1.4639581     0.7808758     2.3651056
C           0.6376220    -0.9354115     1.3363707
H          -0.3824469    -0.5372411     1.2837862
H           0.6901691    -1.5723135     2.2266334
H           1.5206342     0.9119801     0.6097519
H           3.7795709     0.5932739     1.4815215
H           3.3128555    -0.8814890     2.3506945
O           2.7022165    -3.2890641     1.3545526
O           2.8633840    -3.1074025    -1.1780234
C           7.2457102     1.7404744    -2.0138742
H           7.8498056     2.4780736    -2.5353876
C           5.8715978     1.9194228    -1.9174436
H           5.3776117     2.7756961    -2.3664532
C           5.0712137     0.9746959    -1.2586463
O           3.7243807     1.2037768    -1.2608546
H           3.2999155     0.3743309    -0.9497760
C           5.6640258    -0.1437191    -0.6398755
C           7.0468402    -0.3229424    -0.7940058
H           7.5079608    -1.2069565    -0.3562762
C           7.8422769     0.6033800    -1.4608816
H           8.9120459     0.4396877    -1.5504182
