31
217_C11H15NO3S_8-4-5-26 (-165,) energy =   -1106.7447846
C           0.9273636    -0.3235957     0.3909920
H           0.0958656    -0.5044912    -0.2971023
H           1.1368661     0.7486995     0.4314357
S           2.3640976    -1.0911594    -0.3915811
N           3.5556110    -0.6729416     0.7751654
C           4.9625150    -0.9716955     0.3319942
H           5.0449758    -2.0182876     0.0082086
H           5.5495109    -0.8646421     1.2481004
C           3.2127552    -1.3872274     2.0419431
C           1.9374423    -0.8122804     2.6718043
H           1.7561043    -1.3261114     3.6233535
C           0.6987386    -0.9452934     1.7734056
H          -0.1629494    -0.4525444     2.2386739
H           0.4375009    -2.0014357     1.6437336
H           2.1134064     0.2459676     2.9022751
H           4.0531250    -1.2172720     2.7223568
H           3.1288050    -2.4703425     1.8783067
O           2.1455162    -2.5473142    -0.4406344
O           2.6705671    -0.3976081    -1.6548747
C           6.9909812     1.5357559    -2.5443001
H           7.5490949     2.1428905    -3.2523509
C           6.3733389     0.3640327    -2.9744994
H           6.4246211     0.0428837    -4.0101923
C           5.6466738    -0.4261003    -2.0784415
O           5.0496457    -1.5674877    -2.5553151
H           4.0861989    -1.4503724    -2.4320998
C           5.5598511    -0.0630443    -0.7218581
C           6.1773537     1.1288356    -0.3155430
H           6.1144717     1.4180804     0.7316968
C           6.8805187     1.9326022    -1.2097772
H           7.3526116     2.8485363    -0.8656705
31
217_C11H15NO3S_8-4-5-26 (-150,) energy =   -1106.7479703
C           0.9240526    -0.4161102     0.3790632
H           0.0622686    -0.6744910    -0.2438904
H           1.1426634     0.6496627     0.2715068
S           2.3222302    -1.2954028    -0.3517711
N           3.5576582    -0.7744947     0.7100076
C           4.9336117    -1.1219163     0.2101802
H           4.9490366    -2.1300519    -0.2234524
H           5.5485298    -1.1566687     1.1134140
C           3.2668195    -1.2914618     2.0780454
C           2.0227880    -0.6125805     2.6657856
H           1.8709328    -0.9850585     3.6858324
C           0.7496069    -0.8502551     1.8395099
H          -0.0909403    -0.2926626     2.2687353
H           0.4782098    -1.9117118     1.8599419
H           2.2189681     0.4645502     2.7379883
H           4.1366751    -1.0365068     2.6908007
H           3.1633415    -2.3858464     2.0797338
O           2.0781683    -2.7425561    -0.2321900
O           2.6096946    -0.7457132    -1.6899879
C           6.9779546     1.6354575    -2.4139218
H           7.5358149     2.3064415    -3.0620671
C           6.3730992     0.5027661    -2.9504437
H           6.4337040     0.2745699    -4.0100032
C           5.6451774    -0.3698991    -2.1326758
O           5.0734182    -1.4669748    -2.7190221
H           4.1246312    -1.4670797    -2.4740734
C           5.5492086    -0.1260378    -0.7489470
C           6.1535549     1.0303908    -0.2352038
H           6.0804343     1.2263339     0.8329451
C           6.8563278     1.9141130    -1.0498493
H           7.3187386     2.8001642    -0.6241785
31
217_C11H15NO3S_8-4-5-26 (-135,) energy =   -1106.7497196
C           0.8758028    -0.5334405     0.2847350
H          -0.0067125    -0.8696381    -0.2679955
H           1.0878891     0.5085906     0.0312194
S           2.2512748    -1.5027341    -0.3716720
N           3.5116618    -0.8752415     0.5829014
C           4.8746150    -1.2435127     0.0639907
H           4.8457393    -2.2029867    -0.4657333
H           5.4863410    -1.4049036     0.9556587
C           3.2737876    -1.1783368     2.0198164
C           2.0474313    -0.4191454     2.5420556
H           1.9263950    -0.6429539     3.6086328
C           0.7514834    -0.7700366     1.7951814
H          -0.0797341    -0.1632122     2.1726495
H           0.4888197    -1.8201955     1.9661514
H           2.2431575     0.6569169     2.4543525
H           4.1637673    -0.8356984     2.5554758
H           3.1732544    -2.2602816     2.1904275
O           1.9979197    -2.9241427    -0.0852335
O           2.5162861    -1.1031194    -1.7676362
C           6.9679856     1.7155172    -2.2890634
H           7.5286491     2.4400029    -2.8741074
C           6.3353177     0.6556102    -2.9299112
H           6.3794058     0.5361993    -4.0079589
C           5.6025203    -0.2873645    -2.1962777
O           5.0241538    -1.3099564    -2.8909410
H           4.1121802    -1.4409242    -2.5557631
C           5.5283994    -0.1820561    -0.7926906
C           6.1645854     0.9031525    -0.1724851
H           6.1114860     0.9888270     0.9114473
C           6.8745443     1.8531452    -0.9009576
H           7.3619902     2.6806255    -0.3933360
31
217_C11H15NO3S_8-4-5-26 (-120,) energy =   -1106.7509578
C           0.8327008    -0.7602355     0.2596739
H          -0.0529026    -1.2199340    -0.1894456
H           0.9805058     0.2354310    -0.1667897
S           2.2281070    -1.7613607    -0.3012872
N           3.4905160    -0.9448017     0.4886286
C           4.8540768    -1.3284038    -0.0213343
H           4.7876779    -2.2366793    -0.6297381
H           5.4509812    -1.5944104     0.8555666
C           3.3239148    -1.0053594     1.9643838
C           2.0827312    -0.2233877     2.4106811
H           2.0144195    -0.2703845     3.5040366
C           0.7794677    -0.7519840     1.7925403
H          -0.0674397    -0.1297529     2.1044219
H           0.5788816    -1.7705072     2.1440461
H           2.2196378     0.8302324     2.1369527
H           4.2161800    -0.5386251     2.3910493
H           3.2854982    -2.0467526     2.3173865
O           2.0466591    -3.1330936     0.1993752
O           2.4280725    -1.5610546    -1.7503730
C           6.9987521     1.7710556    -2.1390394
H           7.5609921     2.5354482    -2.6692822
C           6.2477278     0.8483130    -2.8577182
H           6.2046268     0.8740003    -3.9421003
C           5.5099375    -0.1461249    -2.1979256
O           4.8338925    -1.0248314    -2.9847473
H           4.0122847    -1.3288152    -2.5447815
C           5.5476868    -0.2266892    -0.7896153
C           6.3106704     0.7200868    -0.0897612
H           6.3537472     0.6548109     0.9962133
C           7.0283704     1.7178910    -0.7423258
H           7.6141040     2.4337760    -0.1730914
31
217_C11H15NO3S_8-4-5-26 (-105,) energy =   -1106.7537322
C           0.8002678    -1.0770950     0.2096059
H          -0.0513430    -1.6893435    -0.1023485
H           0.8675344    -0.1951056    -0.4329607
S           2.2638184    -2.0761522    -0.1460203
N           3.4623092    -0.9981466     0.4015944
C           4.8469408    -1.3979457    -0.0186409
H           4.7754570    -2.2787643    -0.6661771
H           5.4087505    -1.7100995     0.8674572
C           3.3177230    -0.7320278     1.8552809
C           2.0199198     0.0283588     2.1521570
H           1.9661127     0.2218386     3.2300091
C           0.7594685    -0.7266820     1.7027704
H          -0.1334341    -0.1188313     1.8894726
H           0.6462866    -1.6523655     2.2785266
H           2.0660988     1.0018793     1.6483742
H           4.1734232    -0.1093181     2.1332104
H           3.3761142    -1.6668823     2.4324841
O           2.1867601    -3.3081430     0.6539147
O           2.4598568    -2.1952304    -1.6058155
C           7.0080468     1.8017180    -1.9640533
H           7.5568159     2.6025536    -2.4529964
C           5.9546836     1.1873946    -2.6314243
H           5.6677282     1.4891443    -3.6340306
C           5.2270618     0.1491040    -2.0297336
O           4.2334288    -0.3837331    -2.7803825
H           3.6915532    -1.0454882    -2.3034211
C           5.5718271    -0.2779119    -0.7280393
C           6.6390125     0.3606043    -0.0795581
H           6.9114927     0.0243371     0.9194112
C           7.3606439     1.3913400    -0.6760121
H           8.1843736     1.8624422    -0.1480728
31
217_C11H15NO3S_8-4-5-26 (-90,) energy =   -1106.7554172
C           0.8450586    -1.1398423     0.2126625
H          -0.0251063    -1.7649803    -0.0092506
H           0.9106814    -0.3342082    -0.5236731
S           2.2800138    -2.2029667    -0.0718163
N           3.5023287    -1.1328134     0.3883610
C           4.8719286    -1.5112720    -0.0637077
H           4.7780221    -2.3313429    -0.7822344
H           5.4453746    -1.9002058     0.7864626
C           3.3999386    -0.6345499     1.7754485
C           2.1156467     0.1752501     1.9835796
H           2.0796672     0.5142650     3.0256062
C           0.8440634    -0.6223623     1.6571005
H          -0.0431577     0.0067598     1.7944263
H           0.7431949    -1.4746625     2.3392102
H           2.1610860     1.0705363     1.3509348
H           4.2694853     0.0119506     1.9271905
H           3.4658838    -1.4654912     2.4950662
O           2.1626314    -3.3765995     0.8062971
O           2.4799123    -2.4116706    -1.5218263
C           6.9071124     1.8675562    -1.8138674
H           7.4154627     2.7180159    -2.2608369
C           5.8159036     1.3036515    -2.4678502
H           5.4624217     1.6928161    -3.4176773
C           5.1430681     0.2049974    -1.9157584
O           4.0988352    -0.2804142    -2.6343508
H           3.6422961    -1.0303349    -2.2029740
C           5.5784033    -0.3315145    -0.6837264
C           6.6799794     0.2537756    -0.0475402
H           7.0194334    -0.1696090     0.8961579
C           7.3501837     1.3456528    -0.5961709
H           8.2038509     1.7796710    -0.0842988
31
217_C11H15NO3S_8-4-5-26 (-75,) energy =   -1106.7546984
C           0.7932237    -1.6267228     0.3262386
H           0.0496348    -2.4289401     0.3629458
H           0.6324881    -1.0349933    -0.5795345
S           2.3789564    -2.4739746     0.1052803
N           3.4202015    -1.0890265     0.1245188
C           4.8247699    -1.4555480    -0.2303749
H           4.7540777    -2.2086275    -1.0232320
H           5.3312711    -1.9205559     0.6256365
C           3.3157630    -0.3512591     1.4118751
C           1.9277595     0.2710979     1.5865378
H           1.9145671     0.8372453     2.5252159
C           0.8023376    -0.7739395     1.6001947
H          -0.1730858    -0.2819035     1.6914365
H           0.9123891    -1.4355812     2.4670624
H           1.7597299     0.9900598     0.7742403
H           4.0773806     0.4328275     1.3717935
H           3.5611477    -1.0193069     2.2502587
O           2.6223904    -3.3185674     1.2847841
O           2.4600110    -3.0447688    -1.2417562
C           7.1670946     1.8414349    -1.7479086
H           7.7656915     2.6532007    -2.1527782
C           5.8599742     1.6664916    -2.1937925
H           5.4200433     2.3251086    -2.9362995
C           5.0748863     0.6251502    -1.6852267
O           3.8034085     0.5031606    -2.1553456
H           3.3278095    -0.1088676    -1.5551597
C           5.6084462    -0.2566540    -0.7209770
C           6.9180908    -0.0452155    -0.2740156
H           7.3287589    -0.7180605     0.4761513
C           7.7037349     0.9895624    -0.7793829
H           8.7194862     1.1289053    -0.4217050
31
217_C11H15NO3S_8-4-5-26 (-60,) energy =   -1106.7545647
C           0.7888321    -1.6955507     0.4138046
H           0.0587679    -2.4960174     0.5690289
H           0.5879615    -1.2117485    -0.5463202
S           2.3789229    -2.5428236     0.2324086
N           3.3954100    -1.1589989     0.0724669
C           4.7732575    -1.5236365    -0.3792898
H           4.6410143    -2.1805235    -1.2452847
H           5.2982836    -2.0966868     0.3973474
C           3.3324359    -0.2744179     1.2657201
C           1.9395125     0.3452448     1.4132366
H           1.9460099     1.0153663     2.2808079
C           0.8308396    -0.7041269     1.5828523
H          -0.1479169    -0.2152834     1.6536709
H           0.9804103    -1.2631751     2.5136927
H           1.7367096     0.9643925     0.5295986
H           4.0776722     0.5086745     1.1079657
H           3.6167337    -0.8323228     2.1699219
O           2.6682950    -3.2507740     1.4888946
O           2.4299431    -3.2575404    -1.0454042
C           7.1551790     1.8684835    -1.5828873
H           7.7604919     2.7089576    -1.9120264
C           5.8398540     1.7572606    -2.0266651
H           5.4009571     2.4931804    -2.6932627
C           5.0493518     0.6794343    -1.6133974
O           3.7668986     0.6177512    -2.0697235
H           3.2953283    -0.0634074    -1.5441276
C           5.5820551    -0.3003427    -0.7485893
C           6.9000034    -0.1551046    -0.3022321
H           7.3095665    -0.9057758     0.3703131
C           7.6924543     0.9161093    -0.7132907
H           8.7150233     1.0058635    -0.3593221
31
217_C11H15NO3S_8-4-5-26 (-45,) energy =   -1106.7519571
C           0.7915674    -1.7577801     0.5268653
H           0.0881033    -2.5569607     0.7803620
H           0.5489643    -1.3701025    -0.4665847
S           2.3994096    -2.5761032     0.3724934
N           3.3702193    -1.1970624     0.0690118
C           4.7056125    -1.5492360    -0.5134393
H           4.4944299    -2.0922585    -1.4396784
H           5.2527605    -2.2309161     0.1522272
C           3.3246452    -0.1994399     1.1686840
C           1.9181274     0.3946502     1.2985601
H           1.9296263     1.1422136     2.1004585
C           0.8427188    -0.6607173     1.5973257
H          -0.1458898    -0.1900573     1.6536797
H           1.0337428    -1.1272670     2.5706106
H           1.6750737     0.9246529     0.3682637
H           4.0408558     0.5838860     0.9167772
H           3.6482626    -0.6538649     2.1166594
O           2.7352583    -3.1675208     1.6767973
O           2.4405631    -3.3980301    -0.8395624
C           7.1664662     1.8668118    -1.4398187
H           7.7891509     2.7177599    -1.7028776
C           5.8508407     1.8145376    -1.8957528
H           5.4294815     2.6067287    -2.5067589
C           5.0428846     0.7228640    -1.5644892
O           3.7567734     0.7143349    -2.0208422
H           3.2717307    -0.0015359    -1.5605382
C           5.5531037    -0.3277032    -0.7733733
C           6.8714498    -0.2441449    -0.3154264
H           7.2648051    -1.0517560     0.2978084
C           7.6830389     0.8419129    -0.6433334
H           8.7061843     0.8863848    -0.2826231
31
217_C11H15NO3S_8-4-5-26 (-30,) energy =   -1106.7476146
C           0.8523579    -1.8013565     0.6895406
H           0.1885412    -2.6019169     1.0304065
H           0.5706513    -1.5109514    -0.3265152
S           2.4901497    -2.5635710     0.5618267
N           3.3984805    -1.1885598     0.1391198
C           4.6727738    -1.5111807    -0.5855997
H           4.3798129    -1.9443375    -1.5468532
H           5.2380255    -2.2808980    -0.0442439
C           3.3351929    -0.0963303     1.1401060
C           1.9077825     0.4521861     1.2479950
H           1.9041238     1.2658235     1.9830951
C           0.8814207    -0.6138483     1.6598713
H          -0.1237125    -0.1775262     1.6988971
H           1.1102858    -0.9863886     2.6650768
H           1.6256853     0.8910725     0.2818021
H           4.0140659     0.6897525     0.8098886
H           3.6907100    -0.4458106     2.1206851
O           2.8661591    -3.0449529     1.9001091
O           2.5433635    -3.4730629    -0.5860839
C           7.2313899     1.8740809    -1.3244662
H           7.8766279     2.7207971    -1.5427822
C           5.9197116     1.8749411    -1.7956791
H           5.5238857     2.7034835    -2.3745805
C           5.0859243     0.7884808    -1.5196602
O           3.8015557     0.8309270    -1.9857951
H           3.2949835     0.0995214    -1.5838556
C           5.5614133    -0.3085728    -0.7729175
C           6.8770039    -0.2798456    -0.3013765
H           7.2456547    -1.1248889     0.2753126
C           7.7157003     0.8016829    -0.5713651
H           8.7363890     0.8052437    -0.2012163
31
217_C11H15NO3S_8-4-5-26 (-15,) energy =   -1106.7452383
C           1.1501152    -1.7289672     1.6308587
H           0.7916731    -1.9323919     2.6446725
H           0.8446819    -2.5480091     0.9735386
S           2.9506342    -1.8452144     1.7426711
N           3.4080226    -1.4228114     0.1489056
C           4.9088792    -1.6481074     0.0529776
H           5.0398709    -2.6160305    -0.4361397
H           5.3391988    -1.7534709     1.0557768
C           2.8995788    -0.0617416    -0.1908877
C           1.3689517    -0.0450333    -0.2473461
H           1.0504275     0.9473744    -0.5874807
C           0.7173187    -0.3576951     1.1062414
H          -0.3756049    -0.3492693     1.0195261
H           0.9897501     0.4080020     1.8417973
H           1.0332056    -0.7704080    -0.9993681
H           3.3019219     0.1742754    -1.1775893
H           3.2644726     0.7023471     0.5080721
O           3.4386692    -0.7945883     2.6700610
O           3.3444104    -3.2359136     1.9793318
C           7.1695209     1.3436190    -2.0688723
H           7.7567087     2.0952024    -2.5898819
C           6.8227434     1.5507397    -0.7372725
H           7.1249255     2.4473324    -0.2052291
C           6.0672541     0.5931195    -0.0495178
O           5.7666742     0.8830959     1.2494851
H           5.1714876     0.2291857     1.6609242
C           5.6632514    -0.5901495    -0.7037982
C           6.0247069    -0.7729293    -2.0444952
H           5.7183376    -1.6897171    -2.5433879
C           6.7697601     0.1808440    -2.7341402
H           7.0429375     0.0165306    -3.7720906
31
217_C11H15NO3S_8-4-5-26 (0,) energy =   -1106.7481226
C           1.2155950    -1.6349772     1.7453542
H           0.9108209    -1.7356526     2.7916325
H           0.8785896    -2.5144258     1.1893952
S           3.0191969    -1.7468680     1.7761232
N           3.3956823    -1.4646893     0.1393846
C           4.8806676    -1.7145545    -0.0664642
H           4.9552504    -2.6130991    -0.6845141
H           5.3381062    -1.9699829     0.8951457
C           2.8562041    -0.1558930    -0.3251382
C           1.3250203    -0.1479483    -0.3017266
H           0.9813256     0.8041574    -0.7229602
C           0.7511311    -0.3216598     1.1105948
H          -0.3449114    -0.3194919     1.0851118
H           1.0615060     0.5134491     1.7492843
H           0.9539661    -0.9467991    -0.9563982
H           3.2081347    -0.0292605    -1.3507804
H           3.2526422     0.6811136     0.2653524
O           3.5443512    -0.6227116     2.5949423
O           3.4279919    -3.1111212     2.1171669
C           7.1962789     1.3945370    -1.9612926
H           7.7990388     2.1680901    -2.4299126
C           6.8332301     1.5266942    -0.6255130
H           7.1380182     2.3869103    -0.0377175
C           6.0572398     0.5420758     0.0028479
O           5.7597393     0.7678845     1.3103853
H           5.0998284     0.1513145     1.6881313
C           5.6483338    -0.5974538    -0.7246899
C           6.0250692    -0.7022228    -2.0710901
H           5.7150441    -1.5849130    -2.6266229
C           6.7900360     0.2779620    -2.6977308
H           7.0728944     0.1691707    -3.7403827
31
217_C11H15NO3S_8-4-5-26 (15,) energy =   -1106.7499365
C           1.2721217    -1.5553494     1.8022661
H           0.9867367    -1.5597654     2.8587390
H           0.9567842    -2.4963283     1.3427358
S           3.0779124    -1.6014401     1.8099054
N           3.4073195    -1.4712450     0.1515211
C           4.8648223    -1.7451556    -0.1438132
H           4.8778758    -2.5731432    -0.8589543
H           5.3295724    -2.1253334     0.7707663
C           2.8148562    -0.2515505    -0.4554319
C           1.2849514    -0.2807169    -0.3890010
H           0.9019056     0.6142193    -0.8933805
C           0.7524538    -0.3272250     1.0495082
H          -0.3433738    -0.3601595     1.0532317
H           1.0505505     0.5770697     1.5926324
H           0.9200177    -1.1514725    -0.9486105
H           3.1393808    -0.2407447    -1.4983837
H           3.2045149     0.6621018     0.0152524
O           3.5604871    -0.3851174     2.5170640
O           3.5472705    -2.9089971     2.2735096
C           7.2816565     1.3938428    -1.8744017
H           7.9117516     2.1659867    -2.3081723
C           6.9908544     1.4307614    -0.5156881
H           7.3790352     2.2162149     0.1252070
C           6.1798651     0.4485014     0.0737421
O           5.9876146     0.5685491     1.4127400
H           5.1826777     0.1206885     1.7482415
C           5.6642044    -0.6000142    -0.7217727
C           5.9689170    -0.6062277    -2.0917977
H           5.5795825    -1.4192063    -2.7017862
C           6.7652710     0.3734326    -2.6778391
H           6.9882141     0.3363323    -3.7399626
31
217_C11H15NO3S_8-4-5-26 (30,) energy =   -1106.7512084
C           1.2583057    -1.4219480     1.9403090
H           1.0066371    -1.3057829     2.9989254
H           0.9735339    -2.4255404     1.6121234
S           3.0634593    -1.3862705     1.8867608
N           3.3229533    -1.4517434     0.2154133
C           4.7509259    -1.7375528    -0.1565521
H           4.7033398    -2.4962980    -0.9445314
H           5.2208746    -2.2116364     0.7092795
C           2.6540110    -0.3573787    -0.5290353
C           1.1302373    -0.4350945    -0.3930899
H           0.6883872     0.3728821    -0.9881134
C           0.6565756    -0.3203462     1.0621814
H          -0.4357378    -0.3960898     1.1172673
H           0.9340635     0.6563807     1.4751146
H           0.7818945    -1.3833883    -0.8220559
H           2.9384780    -0.4839171    -1.5769956
H           3.0250145     0.6268867    -0.2106814
O           3.4946809    -0.0705875     2.4319564
O           3.6170570    -2.6023508     2.4859188
C           7.2675870     1.4240819    -1.7087977
H           7.9249955     2.1949083    -2.1026074
C           7.0683465     1.3243043    -0.3356395
H           7.5569908     2.0018291     0.3575867
C           6.2242169     0.3411269     0.2002483
O           6.1390327     0.2887567     1.5587819
H           5.2228041     0.1364138     1.8768591
C           5.5813014    -0.5754728    -0.6626104
C           5.7955251    -0.4467585    -2.0436196
H           5.3164235    -1.1608640    -2.7112830
C           6.6226480     0.5390567    -2.5758576
H           6.7728743     0.6065825    -3.6493567
31
217_C11H15NO3S_8-4-5-26 (45,) energy =   -1106.7512513
C           1.3204940    -1.3612742     2.0298613
H           1.1051926    -1.1644398     3.0845106
H           1.0626157    -2.3985447     1.7983697
S           3.1204767    -1.2670505     1.9030919
N           3.3180215    -1.4300169     0.2377423
C           4.6996674    -1.7521794    -0.2254203
H           4.5737855    -2.4303924    -1.0760533
H           5.1731670    -2.3227221     0.5780494
C           2.5586352    -0.4646334    -0.5873011
C           1.0481803    -0.5940690    -0.3710642
H           0.5422747     0.1339194    -1.0162248
C           0.6389361    -0.3623722     1.0894986
H          -0.4461009    -0.4686637     1.2050482
H           0.8986078     0.6564469     1.3998830
H           0.7247842    -1.5929746    -0.6910705
H           2.8057178    -0.6969761    -1.6273573
H           2.8921283     0.5660565    -0.3994279
O           3.5176613     0.0922381     2.3589305
O           3.7382356    -2.4254299     2.5511734
C           7.3312861     1.4094285    -1.5913863
H           8.0148692     2.1782847    -1.9420902
C           7.1587994     1.2096835    -0.2245202
H           7.6951121     1.8068198     0.5064211
C           6.2827890     0.2271893     0.2547421
O           6.2198660     0.0579911     1.6094873
H           5.2958875     0.1157130     1.9371733
C           5.5775488    -0.5901255    -0.6561944
C           5.7652530    -0.3623067    -2.0282049
H           5.2389425    -0.9988282    -2.7376282
C           6.6251684     0.6248573    -2.5048993
H           6.7524560     0.7694141    -3.5739091
31
217_C11H15NO3S_8-4-5-26 (60,) energy =   -1106.7488644
C           1.3723506    -1.2738855     2.0607107
H           1.1913087    -1.0069832     3.1063214
H           1.1422464    -2.3332036     1.9157391
S           3.1639217    -1.1338773     1.8636014
N           3.3197664    -1.3343889     0.2062019
C           4.6589809    -1.6967448    -0.3239832
H           4.4708884    -2.3031636    -1.2158646
H           5.1201319    -2.3462558     0.4254341
C           2.4541623    -0.5272794    -0.6764257
C           0.9659654    -0.7174595    -0.3725718
H           0.3912509    -0.0799541    -1.0547925
C           0.6165420    -0.3732588     1.0803273
H          -0.4579873    -0.4987637     1.2577810
H           0.8581722     0.6750855     1.2926113
H           0.6839828    -1.7572617    -0.5830143
H           2.6699348    -0.8645840    -1.6949615
H           2.7228888     0.5385704    -0.6271443
O           3.5387084     0.2436140     2.2789755
O           3.8305257    -2.2601558     2.5200763
C           7.4397023     1.4083653    -1.5285103
H           8.1573734     2.1622781    -1.8415019
C           7.2552828     1.1498662    -0.1726518
H           7.8158010     1.6862086     0.5867356
C           6.3367918     0.1853300     0.2589294
O           6.2579712    -0.0489603     1.6058575
H           5.3553420     0.1432327     1.9401633
C           5.5975266    -0.5559423    -0.6880419
C           5.7966983    -0.2687721    -2.0475613
H           5.2417331    -0.8427542    -2.7878884
C           6.7009003     0.7006182    -2.4773066
H           6.8350997     0.8907150    -3.5383915
31
217_C11H15NO3S_8-4-5-26 (75,) energy =   -1106.7457687
C           1.5522092    -1.7265458     1.9544327
H           1.5399627    -1.8454563     3.0421801
H           1.3034067    -2.6821206     1.4842222
S           3.2802059    -1.4027695     1.5342902
N           3.1338178    -1.0749236    -0.1051793
C           4.2999479    -1.3522417    -0.9529314
H           3.8935321    -1.4133276    -1.9704626
H           4.6336020    -2.3615957    -0.6950886
C           2.1810583    -0.0054426    -0.4815446
C           0.7563590    -0.3504386    -0.0343561
H           0.0921354     0.4713334    -0.3272969
C           0.6482696    -0.5815041     1.4799646
H          -0.3841914    -0.8270519     1.7550882
H           0.9175770     0.3319231     2.0229729
H           0.4186168    -1.2482942    -0.5681843
H           2.2218936     0.0591737    -1.5732635
H           2.5031903     0.9666050    -0.0915494
O           3.6741422    -0.1833125     2.2862358
O           4.0889276    -2.6144181     1.6816649
C           7.8935151     1.0532785    -1.4286125
H           8.7947897     1.6370382    -1.5955709
C           6.8673280     1.5684756    -0.6473947
H           6.9433372     2.5491142    -0.1878432
C           5.6921829     0.8383871    -0.4096009
O           4.7391791     1.4730118     0.3503729
H           4.4606720     0.9114018     1.1070042
C           5.5309108    -0.4365417    -0.9857181
C           6.5968011    -0.9446740    -1.7490704
H           6.4920924    -1.9369129    -2.1859374
C           7.7629165    -0.2240515    -1.9792918
H           8.5594941    -0.6535866    -2.5801116
31
217_C11H15NO3S_8-4-5-26 (90,) energy =   -1106.7456298
C           1.7438183    -1.7249480     1.9599817
H           1.8407410    -1.8449014     3.0433681
H           1.5172209    -2.6950196     1.5086337
S           3.3987974    -1.2815843     1.3817839
N           3.0798498    -0.9797555    -0.2373327
C           4.1942495    -1.1735253    -1.1844263
H           3.7481340    -0.9727505    -2.1661155
H           4.4431707    -2.2384017    -1.1671053
C           2.0363865     0.0352332    -0.5090868
C           0.6825188    -0.3998031     0.0630245
H          -0.0557382     0.3792501    -0.1618392
C           0.7249881    -0.6433596     1.5787655
H          -0.2603292    -0.9599948     1.9406616
H           0.9786106     0.2841952     2.1049528
H           0.3556776    -1.3153607    -0.4469065
H           1.9677776     0.1130373    -1.5981086
H           2.3314293     1.0231422    -0.1376078
O           3.7623873    -0.0258232     2.0883609
O           4.3028966    -2.4300748     1.4558523
C           7.9931590     0.9301382    -1.2470234
H           8.9460356     1.4482621    -1.3150603
C           6.9000852     1.5584980    -0.6592259
H           6.9741120     2.5639389    -0.2563126
C           5.6629929     0.9100359    -0.5576852
O           4.6328913     1.6167176     0.0229721
H           4.3637702     1.1580405     0.8499853
C           5.5041995    -0.3928411    -1.0671202
C           6.6308945    -1.0174825    -1.6256043
H           6.5299595    -2.0340309    -2.0013960
C           7.8612933    -0.3746307    -1.7257639
H           8.7090163    -0.8894125    -2.1689250
31
217_C11H15NO3S_8-4-5-26 (105,) energy =   -1106.7449468
C           1.8626993    -1.7138073     1.9570246
H           2.0362708    -1.8142695     3.0328140
H           1.6754467    -2.7023872     1.5284140
S           3.4452520    -1.1673010     1.2712490
N           3.0106294    -0.9134567    -0.3272931
C           4.0723943    -1.0288047    -1.3575343
H           3.6226537    -0.5963718    -2.2576993
H           4.2236717    -2.0945814    -1.5561779
C           1.8841189     0.0235917    -0.5388507
C           0.5993271    -0.4884516     0.1214943
H          -0.1997325     0.2393750    -0.0640574
C           0.7509530    -0.7090659     1.6334116
H          -0.1867612    -1.0855239     2.0589209
H           0.9739205     0.2401964     2.1342170
H           0.3017355    -1.4292450    -0.3594812
H           1.7379414     0.0860619    -1.6205519
H           2.1342086     1.0338440    -0.1905194
O           3.7583443     0.1251808     1.9348451
O           4.4245761    -2.2536533     1.3103472
C           8.0224292     0.7258984    -1.0666229
H           9.0145998     1.1687842    -1.0420428
C           6.9215598     1.4644869    -0.6377630
H           7.0288775     2.4809834    -0.2717251
C           5.6393720     0.9090855    -0.6608165
O           4.5833849     1.6899101    -0.2365442
H           4.2810833     1.3299642     0.6266816
C           5.4417531    -0.4025320    -1.1318412
C           6.5664797    -1.1365060    -1.5319923
H           6.4293313    -2.1591662    -1.8766090
C           7.8465658    -0.5864384    -1.5071758
H           8.6987090    -1.1798539    -1.8261315
31
217_C11H15NO3S_8-4-5-26 (120,) energy =   -1106.7433401
C           1.9984238    -1.6876743     1.9986758
H           2.2272565    -1.7459330     3.0672618
H           1.8776378    -2.6994950     1.6016466
S           3.5047222    -1.0333416     1.2386819
N           2.9958700    -0.8592880    -0.3502056
C           4.0187435    -0.8258191    -1.4387268
H           3.5881748    -0.1739604    -2.2049442
H           4.0853608    -1.8339533    -1.8614372
C           1.7749905    -0.0408807    -0.5360302
C           0.5658493    -0.6349043     0.1930170
H          -0.2983658     0.0161773     0.0146016
C           0.7936644    -0.7900891     1.7022682
H          -0.0907257    -1.2292903     2.1787174
H           0.9568399     0.1900914     2.1651092
H           0.3323913    -1.6136064    -0.2459879
H           1.5750917    -0.0318109    -1.6106978
H           1.9490066     1.0003986    -0.2287505
O           3.7328577     0.2984008     1.8597272
O           4.5639368    -2.0410530     1.2825623
C           8.0585947     0.6094029    -0.9082363
H           9.0749576     0.9844524    -0.8211104
C           6.9855705     1.4289666    -0.5602564
H           7.1388989     2.4414963    -0.1996181
C           5.6756385     0.9571553    -0.6655786
O           4.6329779     1.7969571    -0.3321351
H           4.2703264     1.4819695     0.5254521
C           5.4252216    -0.3450153    -1.1373099
C           6.5161351    -1.1585597    -1.4634661
H           6.3305848    -2.1713657    -1.8133443
C           7.8254518    -0.6929929    -1.3525212
H           8.6564648    -1.3425093    -1.6124001
31
217_C11H15NO3S_8-4-5-26 (135,) energy =   -1106.7421092
C           2.0580372    -1.6336066     2.0234917
H           2.3070488    -1.6106641     3.0889782
H           2.0267760    -2.6735036     1.6866165
S           3.4979160    -0.8956821     1.2131940
N           2.9700382    -0.8875913    -0.3932572
C           3.9716950    -0.5824435    -1.4795492
H           3.5718315     0.2850945    -2.0153254
H           3.9530591    -1.4410587    -2.1579411
C           1.6768103    -0.1827461    -0.5898809
C           0.5259359    -0.8290294     0.1853007
H          -0.3906961    -0.2662276    -0.0277335
C           0.7741846    -0.8690042     1.6975503
H          -0.0623111    -1.3573122     2.2112078
H           0.8515675     0.1481443     2.0986651
H           0.3755183    -1.8493413    -0.1904931
H           1.4627601    -0.2467108    -1.6607202
H           1.7736921     0.8841676    -0.3367111
O           3.6047484     0.4936466     1.7366103
O           4.6386884    -1.8003868     1.3425942
C           8.1103756     0.4472677    -0.8467293
H           9.1543740     0.7296065    -0.7385209
C           7.1104966     1.3588859    -0.5128285
H           7.3472865     2.3516453    -0.1428434
C           5.7648982     1.0068062    -0.6437144
O           4.8007105     1.9375876    -0.3339926
H           4.3089282     1.6098114     0.4518498
C           5.4096916    -0.2650674    -1.1340570
C           6.4291656    -1.1702621    -1.4521208
H           6.1592294    -2.1553111    -1.8253281
C           7.7716063    -0.8265414    -1.3082880
H           8.5469494    -1.5436166    -1.5623418
31
217_C11H15NO3S_8-4-5-26 (150,) energy =   -1106.7430153
C           0.9599472    -0.0547524     0.6111086
H           0.2246899     0.0506321    -0.1927316
H           0.9968646     0.8773393     1.1819502
S           2.5452816    -0.1514237    -0.2578034
N           3.6027514    -0.4134811     1.0535096
C           5.0753963    -0.5054320     0.7175381
H           5.3343674    -1.5718483     0.6989085
H           5.5812839    -0.0467708     1.5726153
C           3.2039702    -1.5994133     1.8616033
C           1.8327879    -1.4462325     2.5213130
H           1.6464161    -2.3343149     3.1367935
C           0.7077993    -1.2756055     1.4949330
H          -0.2588670    -1.1497186     1.9966241
H           0.6312079    -2.1680628     0.8629281
H           1.8554423    -0.5815390     3.1967890
H           3.9701270    -1.6936556     2.6380054
H           3.2424385    -2.5138132     1.2492402
O           2.4965260    -1.3611559    -1.1247620
O           2.8209648     1.1497148    -0.8630231
C           6.9216923     1.1118588    -2.8259586
H           7.4348157     1.4956837    -3.7039458
C           6.3478946    -0.1560713    -2.8619179
H           6.3954297    -0.7759521    -3.7517205
C           5.6789662    -0.6619407    -1.7425654
O           5.1582363    -1.9282925    -1.8184438
H           4.2004283    -1.8908049    -1.6028067
C           5.6064387     0.1015337    -0.5595143
C           6.1820637     1.3790084    -0.5495523
H           6.1259202     1.9711102     0.3610642
C           6.8304911     1.8911839    -1.6695956
H           7.2711246     2.8834620    -1.6382921
31
217_C11H15NO3S_8-4-5-26 (165,) energy =   -1106.7447491
C           0.9553901    -0.1515856     0.5262106
H           0.2203815    -0.1665195    -0.2846157
H           0.9777429     0.8507750     0.9633540
S           2.5427568    -0.3289228    -0.3275892
N           3.6226785    -0.4320762     0.9993744
C           5.0533051    -0.6925975     0.5918880
H           5.1776939    -1.7741712     0.4409846
H           5.6314145    -0.4111860     1.4777126
C           3.2141110    -1.4996964     1.9566992
C           1.8515971    -1.2522985     2.6036162
H           1.6750605    -2.0419979     3.3433728
C           0.7191714    -1.2394117     1.5718450
H          -0.2467615    -1.0530988     2.0558645
H           0.6491776    -2.2132282     1.0729993
H           1.8762567    -0.2986422     3.1460950
H           3.9904279    -1.5064266     2.7292460
H           3.2331327    -2.4851578     1.4649549
O           2.5337719    -1.6275282    -1.0554265
O           2.7911436     0.9005966    -1.0770394
C           6.9536587     1.2412768    -2.7585812
H           7.4762174     1.7061763    -3.5906500
C           6.3760927    -0.0135646    -2.9238035
H           6.4274209    -0.5417800    -3.8706292
C           5.6924062    -0.6254309    -1.8664598
O           5.1717235    -1.8709601    -2.0904694
H           4.2559969    -1.9219951    -1.7419128
C           5.6145830     0.0191098    -0.6144487
C           6.1947528     1.2873326    -0.4752416
H           6.1326621     1.7858570     0.4896704
C           6.8548299     1.9054926    -1.5325075
H           7.2985321     2.8880117    -1.4003382
31
217_C11H15NO3S_8-4-5-26 (180,) energy =   -1106.7454117
C           0.9156999    -0.2861701     0.4824329
H           0.1717788    -0.4239844    -0.3084487
H           0.9111161     0.7632211     0.7909893
S           2.4961972    -0.5134438    -0.3727658
N           3.6145223    -0.4844417     0.9287684
C           4.9989867    -0.8587849     0.4711755
H           5.0223568    -1.9297197     0.2244329
H           5.6112619    -0.7192893     1.3679175
C           3.2300482    -1.3979155     2.0418982
C           1.8727434    -1.0779136     2.6661604
H           1.7221225    -1.7528992     3.5167809
C           0.7279131    -1.2377315     1.6612298
H          -0.2381136    -1.0207792     2.1320194
H           0.6850403    -2.2704134     1.2949109
H           1.8851379    -0.0544105     3.0620358
H           4.0169096    -1.2811173     2.7944346
H           3.2527652    -2.4472724     1.7049455
O           2.5183725    -1.8657174    -0.9920137
O           2.7115794     0.6507101    -1.2299735
C           6.9793851     1.3198220    -2.6760759
H           7.5156192     1.8467078    -3.4611866
C           6.3665978     0.1042269    -2.9609317
H           6.4026738    -0.3302687    -3.9549182
C           5.6636306    -0.5871693    -1.9663234
O           5.1084027    -1.7842430    -2.3217784
H           4.2478277    -1.9238876    -1.8759016
C           5.6039729    -0.0632945    -0.6582781
C           6.2191801     1.1684899    -0.3988972
H           6.1672685     1.5731369     0.6096795
C           6.8986851     1.8669506    -1.3919213
H           7.3698344     2.8193045    -1.1668038
