18
234_C8H8O2_0-1-8-6 (-165,) energy =    -460.1252106
C           1.6987523    -0.9513679    -1.1582516
O           2.1188912    -0.3586573    -0.0024781
C           5.8581788     1.2434776     0.9491138
H           6.8178721     1.6678009     1.2300214
C           4.9068234     0.9432437     1.9268721
H           5.1187356     1.1333722     2.9754376
C           3.6782002     0.3982897     1.5629799
H           2.9226295     0.1602334     2.3050258
C           3.4008783     0.1506630     0.2159950
C           4.3376403     0.4483158    -0.7769920
H           4.1203986     0.2495763    -1.8156406
C           5.5651259     0.9946226    -0.3912714
H           6.2983172     1.2259517    -1.1592781
C           0.2577738    -1.3772100    -1.0014324
H          -0.0797206    -1.8503492    -1.9239746
H          -0.3696169    -0.5085287    -0.7762340
H           0.1592499    -2.0769868    -0.1651332
O           2.3714825    -1.1122649    -2.1481408
18
234_C8H8O2_0-1-8-6 (-150,) energy =    -460.1253783
C           1.7370190    -1.0356441    -1.0902426
O           2.0745694    -0.2645602    -0.0116568
C           5.8591994     1.2272857     0.9338723
H           6.8309085     1.6282767     1.2076198
C           4.9376940     0.8804215     1.9240903
H           5.1848788     1.0115317     2.9739656
C           3.6924649     0.3639067     1.5711305
H           2.9587950     0.0914228     2.3232536
C           3.3734111     0.1935240     0.2232209
C           4.2782562     0.5429296    -0.7809687
H           4.0245285     0.4049313    -1.8224219
C           5.5226202     1.0575002    -0.4095598
H           6.2328783     1.3277092    -1.1862793
C           0.2618315    -1.3536996    -1.0336824
H          -0.0078300    -1.9673148    -1.8936734
H          -0.3231322    -0.4280745    -1.0368764
H           0.0257246    -1.8856663    -0.1063189
O           2.5038265    -1.4029797    -1.9463769
18
234_C8H8O2_0-1-8-6 (-135,) energy =    -460.1254805
C           1.7666226    -1.0884589    -1.0093860
O           2.0342928    -0.1520775    -0.0439712
C           5.8653192     1.1986777     0.9201457
H           6.8511011     1.5658226     1.1910996
C           4.9625165     0.8145852     1.9132993
H           5.2396255     0.8823147     2.9616805
C           3.6978779     0.3400667     1.5654206
H           2.9786835     0.0381913     2.3203053
C           3.3449580     0.2560970     0.2198552
C           4.2311170     0.6419933    -0.7856681
H           3.9432103     0.5679290    -1.8266557
C           5.4948080     1.1106772    -0.4231776
H           6.1922711     1.4094228    -1.2009041
C           0.2798465    -1.3447910    -1.0617208
H           0.0678666    -2.0872808    -1.8315078
H          -0.2543495    -0.4146508    -1.2817311
H          -0.0752381    -1.7023299    -0.0897022
O           2.6014910    -1.6173419    -1.6999820
18
234_C8H8O2_0-1-8-6 (-120,) energy =    -460.1252885
C           1.5927169    -1.2077649    -0.3241263
O           2.2396850    -0.0698440    -0.7380727
C           5.8185324     1.1838505     1.0059941
H           6.7497424     1.5293094     1.4458748
C           4.6739576     1.9799673     1.0759056
H           4.7092775     2.9471777     1.5695516
C           3.4756318     1.5374453     0.5139903
H           2.5732217     2.1393276     0.5546929
C           3.4396931     0.2990427    -0.1212599
C           4.5726066    -0.5082102    -0.2016963
H           4.5189894    -1.4714810    -0.6965045
C           5.7634296    -0.0576532     0.3684713
H           6.6510423    -0.6817329     0.3126442
C           0.3170392    -1.3792961    -1.1124029
H          -0.1909417    -2.2869899    -0.7855858
H           0.5417101    -1.4403855    -2.1822833
H          -0.3354477    -0.5124054    -0.9657172
O           2.0006671    -1.9432091     0.5388825
18
234_C8H8O2_0-1-8-6 (-105,) energy =    -460.1249976
C           1.5380613    -1.1228655    -0.2615354
O           2.2851899    -0.1149310    -0.8205785
C           5.8109293     1.1678253     1.0109185
H           6.7310719     1.5155873     1.4718260
C           4.6423097     1.9232159     1.1241550
H           4.6490046     2.8605940     1.6734146
C           3.4579581     1.4787883     0.5342131
H           2.5390746     2.0518670     0.6083017
C           3.4609796     0.2783944    -0.1699607
C           4.6172788    -0.4874907    -0.2934765
H           4.5888409    -1.4196980    -0.8482533
C           5.7949138    -0.0359948     0.3028664
H           6.7014890    -0.6279412     0.2128793
C           0.3155614    -1.3798258    -1.1086539
H          -0.2717688    -2.1829955    -0.6628547
H           0.6140623    -1.6544059    -2.1256541
H          -0.2895733    -0.4702884    -1.1814589
O           1.8372013    -1.6989217     0.7533729
18
234_C8H8O2_0-1-8-6 (-90,) energy =    -460.1248674
C           1.4868863    -1.0367780    -0.2137244
O           2.3454080    -0.1922997    -0.8743486
C           5.8134513     1.1641777     1.0132161
H           6.7208465     1.5277594     1.4869952
C           4.6143810     1.8627226     1.1693074
H           4.5853362     2.7708486     1.7649947
C           3.4463983     1.4001725     0.5618812
H           2.5058863     1.9313290     0.6688900
C           3.4952883     0.2352989    -0.1985472
C           4.6816931    -0.4729866    -0.3656496
H           4.6867609    -1.3755119    -0.9686811
C           5.8443787    -0.0018191     0.2455510
H           6.7749069    -0.5484732     0.1204162
C           0.3189231    -1.3780794    -1.1068172
H          -0.3588551    -2.0476882    -0.5766933
H           0.6748945    -1.8564763    -2.0250660
H          -0.2100597    -0.4652213    -1.3994269
O           1.6650670    -1.4303361     0.9108243
18
234_C8H8O2_0-1-8-6 (-75,) energy =    -460.1250570
C           1.4086189    -0.9188226    -0.1687454
O           2.3848495    -0.2696146    -0.8840273
C           5.8189993     1.1772874     0.9973571
H           6.7199134     1.5622885     1.4665464
C           4.5948669     1.8174568     1.2038553
H           4.5403963     2.7005671     1.8343734
C           3.4342556     1.3307238     0.6021145
H           2.4766857     1.8185835     0.7514738
C           3.5146867     0.1952148    -0.2002073
C           4.7261720    -0.4542923    -0.4178237
H           4.7532492    -1.3322109    -1.0556001
C           5.8823237     0.0433984     0.1854916
H           6.8320351    -0.4574233     0.0191912
C           0.2980244    -1.3472415    -1.0967491
H          -0.4749005    -1.8603122    -0.5239362
H           0.6913978    -2.0117691    -1.8728813
H          -0.1277818    -0.4737686    -1.6013072
O           1.4559963    -1.1044104     1.0207456
18
234_C8H8O2_0-1-8-6 (-60,) energy =    -460.1253635
C           1.3439341    -0.8321184    -0.1523740
O           2.4262478    -0.3747787    -0.8622618
C           5.8298290     1.1864205     0.9826107
H           6.7261296     1.5967226     1.4390407
C           4.5838458     1.7601061     1.2457237
H           4.5084696     2.6178560     1.9083067
C           3.4270441     1.2426561     0.6622739
H           2.4561005     1.6808300     0.8625919
C           3.5349852     0.1385613    -0.1815043
C           4.7691962    -0.4447101    -0.4563304
H           4.8155925    -1.2983135    -1.1252507
C           5.9196283     0.0854434     0.1292409
H           6.8853229    -0.3648070    -0.0832103
C           0.2966191    -1.3515806    -1.1070720
H          -0.5634293    -1.7099169    -0.5407643
H           0.7098672    -2.1642486    -1.7133080
H          -0.0122791    -0.5571857    -1.7943856
O           1.2629675    -0.8123357     1.0498699
18
234_C8H8O2_0-1-8-6 (-45,) energy =    -460.1254782
C           1.2823075    -0.7492937    -0.1529311
O           2.4543010    -0.4747131    -0.8079765
C           5.8461172     1.2020036     0.9575458
H           6.7423819     1.6356089     1.3918986
C           4.5900120     1.7174330     1.2821598
H           4.5063591     2.5541812     1.9702509
C           3.4287812     1.1718962     0.7319792
H           2.4546298     1.5671721     0.9883468
C           3.5459973     0.0945247    -0.1465761
C           4.7928932    -0.4299861    -0.4836971
H           4.8442823    -1.2632619    -1.1774027
C           5.9442787     0.1281065     0.0707828
H           6.9169171    -0.2787656    -0.1917433
C           0.3015119    -1.3688454    -1.1191316
H          -0.6285382    -1.5925150    -0.5958989
H           0.7204272    -2.2857658    -1.5462211
H           0.1072882    -0.6817135    -1.9493027
O           1.0802046    -0.5270881     1.0149807
18
234_C8H8O2_0-1-8-6 (-30,) energy =    -460.1253344
C           1.2247361    -0.6684267    -0.1726850
O           2.4678901    -0.5558796    -0.7314249
C           5.8646336     1.2129515     0.9362239
H           6.7658113     1.6628703     1.3429449
C           4.6087924     1.6768517     1.3285748
H           4.5297230     2.4915961     2.0432277
C           3.4379111     1.1108742     0.8180566
H           2.4676581     1.4670266     1.1327586
C           3.5483470     0.0622343    -0.0974502
C           4.7977177    -0.4108232    -0.5028849
H           4.8437148    -1.2227596    -1.2218219
C           5.9547650     0.1665885     0.0157548
H           6.9260324    -0.2031373    -0.3012115
C           0.3116105    -1.3930423    -1.1329332
H          -0.6785237    -1.4880768    -0.6863464
H           0.7149708    -2.3846002    -1.3626596
H           0.2441928    -0.8414590    -2.0764699
O           0.9126199    -0.2549047     0.9172573
18
234_C8H8O2_0-1-8-6 (-15,) energy =    -460.1251971
C           1.1816224    -0.5873830    -0.2193078
O           2.4725885    -0.6184766    -0.6615628
C           5.8747481     1.2175680     0.9227930
H           6.7798043     1.6785423     1.3079451
C           4.6244826     1.6326450     1.3797780
H           4.5530489     2.4208655     2.1244552
C           3.4463921     1.0533539     0.8993504
H           2.4814500     1.3726497     1.2629045
C           3.5459833     0.0390094    -0.0564421
C           4.7917738    -0.3858716    -0.5260908
H           4.8290298    -1.1731130    -1.2724452
C           5.9535314     0.2039832    -0.0351914
H           6.9198651    -0.1298686    -0.4030166
C           0.3240433    -1.4298414    -1.1343583
H          -0.7066065    -1.4114175    -0.7789915
H           0.6934204    -2.4602504    -1.1566003
H           0.3725430    -1.0431291    -2.1576573
O           0.7860459     0.0160698     0.7491345
18
234_C8H8O2_0-1-8-6 (0,) energy =    -460.1251564
C           1.1613716    -0.5201438    -0.2831653
O           2.4775360    -0.6827031    -0.6017334
C           5.8757701     1.2201008     0.9110253
H           6.7807844     1.6937189     1.2806079
C           4.6316134     1.5845040     1.4237733
H           4.5645428     2.3455083     2.1966741
C           3.4527692     0.9893446     0.9642719
H           2.4920725     1.2748903     1.3646042
C           3.5458805     0.0114718    -0.0297889
C           4.7863942    -0.3643623    -0.5534743
H           4.8186611    -1.1276577    -1.3245059
C           5.9482857     0.2403914    -0.0822769
H           6.9098614    -0.0553576    -0.4927348
C           0.3286299    -1.4555224    -1.1285636
H          -0.7234175    -1.3335844    -0.8693511
H           0.6370468    -2.4925829    -0.9608606
H           0.4783618    -1.2376864    -2.1911677
O           0.7262720     0.2480334     0.5414445
18
234_C8H8O2_0-1-8-6 (15,) energy =    -460.1251966
C           1.1634948    -0.4622984    -0.3578905
O           2.4848009    -0.7498706    -0.5438149
C           5.8691112     1.2257888     0.9050401
H           6.7704445     1.7152830     1.2627525
C           4.6309908     1.5332519     1.4678879
H           4.5652747     2.2654185     2.2682374
C           3.4577233     0.9168689     1.0231451
H           2.5008258     1.1649712     1.4567643
C           3.5493773    -0.0219591    -0.0076635
C           4.7834354    -0.3425304    -0.5798560
H           4.8155997    -1.0803952    -1.3752816
C           5.9406232     0.2823179    -0.1226117
H           6.8977768     0.0301580    -0.5707465
C           0.3265262    -1.4705607    -1.1098142
H          -0.7295974    -1.2484898    -0.9544137
H           0.5508509    -2.4835044    -0.7599187
H           0.5618748    -1.4343848    -2.1785597
O           0.7304646     0.4529153     0.3004335
18
234_C8H8O2_0-1-8-6 (30,) energy =    -460.1253343
C           1.1904071    -0.4105925    -0.4448133
O           2.4947513    -0.8188526    -0.4833861
C           5.8549827     1.2388263     0.9026769
H           6.7481722     1.7495463     1.2509897
C           4.6244305     1.4813239     1.5135131
H           4.5570701     2.1824710     2.3409641
C           3.4636481     0.8358367     1.0800512
H           2.5113238     1.0347171     1.5499289
C           3.5578204    -0.0613570     0.0141822
C           4.7825632    -0.3174611    -0.6049930
H           4.8169995    -1.0269641    -1.4257325
C           5.9302667     0.3342579    -0.1586980
H           6.8824058     0.1334287    -0.6420646
C           0.3186248    -1.4697102    -1.0767707
H          -0.7226634    -1.1485619    -1.0393465
H           0.4361314    -2.4203299    -0.5463101
H           0.6207431    -1.6363062    -2.1159183
O           0.8025368     0.6341289     0.0185114
18
234_C8H8O2_0-1-8-6 (45,) energy =    -460.1254782
C           1.2358622    -0.3839586    -0.5294160
O           2.5002300    -0.8966277    -0.4006972
C           5.8350908     1.2567031     0.8933586
H           6.7189213     1.7937883     1.2255437
C           4.6184532     1.4323568     1.5549980
H           4.5531512     2.1068923     2.4043264
C           3.4737185     0.7490322     1.1409699
H           2.5291550     0.8898596     1.6497838
C           3.5661704    -0.1110295     0.0464018
C           4.7741488    -0.3001907    -0.6233132
H           4.8085468    -0.9841282    -1.4654906
C           5.9101530     0.3862413    -0.1956432
H           6.8526506     0.2391353    -0.7157880
C           0.3098302    -1.4583441    -1.0466281
H          -0.6980156    -1.0527416    -1.1389703
H           0.3080096    -2.3143789    -0.3639649
H           0.6578710    -1.8186402    -2.0202419
O           0.9258693     0.7520895    -0.2695358
18
234_C8H8O2_0-1-8-6 (60,) energy =    -460.1253636
C           1.2880613    -0.3742494    -0.6174052
O           2.4911187    -0.9528214    -0.2983154
C           5.8160427     1.2778328     0.8817825
H           6.6946321     1.8363869     1.1917737
C           4.6238135     1.3936165     1.6000589
H           4.5723135     2.0428102     2.4697489
C           3.4902177     0.6785937     1.2126606
H           2.5605634     0.7642192     1.7633434
C           3.5655713    -0.1469977     0.0922547
C           4.7465215    -0.2754661    -0.6342809
H           4.7697481    -0.9345091    -1.4964556
C           5.8752226     0.4407975    -0.2337677
H           6.7997036     0.3428507    -0.7960781
C           0.3056278    -1.4443004    -1.0273680
H          -0.6525400    -0.9828754    -1.2677493
H           0.1795961    -2.1696883    -0.2170071
H           0.6856059    -1.9903331    -1.8970370
O           1.0710442     0.8103270    -0.5714192
18
234_C8H8O2_0-1-8-6 (75,) energy =    -460.1250573
C           1.3423832    -0.3842008    -0.7128978
O           2.4644002    -0.9795450    -0.1906214
C           5.8009022     1.2928052     0.8727135
H           6.6796738     1.8647339     1.1567362
C           4.6441501     1.3546745     1.6531325
H           4.6199249     1.9750521     2.5447316
C           3.5128254     0.6205639     1.2964690
H           2.6078736     0.6568696     1.8939589
C           3.5532394    -0.1675490     0.1489451
C           4.6977263    -0.2419536    -0.6394269
H           4.6963877    -0.8727603    -1.5227820
C           5.8257479     0.4931985    -0.2713379
H           6.7234126     0.4391365    -0.8810147
C           0.3062499    -1.4366745    -1.0241478
H          -0.5874840    -0.9577148    -1.4249093
H           0.0564201    -1.9983223    -0.1181624
H           0.7041905    -2.1520978    -1.7512680
O           1.2284184     0.8025879    -0.8864485
18
234_C8H8O2_0-1-8-6 (90,) energy =    -460.1248668
C           1.3988728    -0.4102930    -0.8108950
O           2.4247071    -0.9697672    -0.0890241
C           5.7946981     1.3012576     0.8691872
H           6.6799863     1.8751198     1.1280199
C           4.6801112     1.3156426     1.7103812
H           4.6950591     1.9011232     2.6254555
C           3.5411932     0.5789666     1.3826064
H           2.6667953     0.5748510     2.0256827
C           3.5333954    -0.1666655     0.2072274
C           4.6356482    -0.1937534    -0.6422113
H           4.5987347    -0.7896296    -1.5487169
C           5.7698641     0.5461086    -0.3050604
H           6.6346669     0.5308598    -0.9625127
C           0.3085193    -1.4315583    -1.0264045
H          -0.5078490    -0.9767596    -1.5880915
H          -0.0588430    -1.7995419    -0.0629626
H           0.7041509    -2.2929940    -1.5744239
O           1.3973135     0.7291492    -1.2019013
18
234_C8H8O2_0-1-8-6 (105,) energy =    -460.1249970
C           1.4575517    -0.4572660    -0.9279101
O           2.3778243    -0.9258512    -0.0222991
C           5.7933593     1.3039902     0.8677000
H           6.6881582     1.8690146     1.1128758
C           4.7163807     1.2791566     1.7557425
H           4.7689675     1.8244852     2.6939720
C           3.5645857     0.5552090     1.4435856
H           2.7171352     0.5208194     2.1210019
C           3.5082056    -0.1426570     0.2407923
C           4.5730712    -0.1293841    -0.6562948
H           4.4999188    -0.6827565    -1.5869016
C           5.7183872     0.6001179    -0.3363466
H           6.5534639     0.6173213    -1.0311338
C           0.3215118    -1.4428699    -1.0550864
H          -0.4100935    -1.0622874    -1.7683139
H          -0.1520079    -1.5999594    -0.0805897
H           0.7022925    -2.4126253    -1.3920641
O           1.5665225     0.5865210    -1.5195409
18
234_C8H8O2_0-1-8-6 (120,) energy =    -460.1252881
C           1.5073569    -0.5137790    -1.0188361
O           2.3276475    -0.8501110     0.0293964
C           5.8020307     1.3001794     0.8815465
H           6.7098990     1.8458757     1.1223244
C           4.7589681     1.2347420     1.8070095
H           4.8503218     1.7281957     2.7706439
C           3.5903693     0.5366699     1.4994057
H           2.7666103     0.4707673     2.2032086
C           3.4828494    -0.0972443     0.2644739
C           4.5143517    -0.0435850    -0.6708040
H           4.4053875    -0.5403919    -1.6283575
C           5.6755702     0.6617801    -0.3542831
H           6.4838806     0.7109553    -1.0786246
C           0.3213238    -1.4467115    -1.0523496
H          -0.3275456    -1.1771897    -1.8860693
H          -0.2339021    -1.3841020    -0.1108191
H           0.6608606    -2.4819136    -1.1619091
O           1.7224736     0.3920128    -1.7839194
18
234_C8H8O2_0-1-8-6 (135,) energy =    -460.1254803
C           1.5434885    -0.5752897    -1.0925060
O           2.2740457    -0.7462978     0.0553316
C           5.8213628     1.2842729     0.9060945
H           6.7451367     1.8000514     1.1522467
C           4.8001349     1.1844732     1.8527034
H           4.9239862     1.6199184     2.8403915
C           3.6126088     0.5250713     1.5357299
H           2.8060444     0.4328663     2.2562672
C           3.4576890    -0.0338639     0.2685603
C           4.4697695     0.0497734    -0.6874572
H           4.3329989    -0.3869345    -1.6685885
C           5.6508920     0.7164045    -0.3580322
H           6.4424459     0.7893023    -1.0987698
C           0.3166772    -1.4535648    -1.0423823
H          -0.2637953    -1.3162203    -1.9550632
H          -0.2933478    -1.1995453    -0.1694380
H           0.6103102    -2.5034906    -0.9403172
O           1.8470515     0.1671087    -1.9926921
18
234_C8H8O2_0-1-8-6 (150,) energy =    -460.1253784
C           1.5685793    -0.6501384    -1.1510381
O           2.2215487    -0.6323944     0.0511173
C           5.8364714     1.2669001     0.9272996
H           6.7735781     1.7511038     1.1867741
C           4.8287628     1.1278236     1.8839616
H           4.9758280     1.5001225     2.8940568
C           3.6262617     0.5085144     1.5486838
H           2.8306062     0.3853916     2.2766835
C           3.4348560     0.0307172     0.2514777
C           4.4340908     0.1526918    -0.7159320
H           4.2766727    -0.2172473    -1.7191364
C           5.6325180     0.7777435    -0.3634582
H           6.4127472     0.8793440    -1.1129197
C           0.2947979    -1.4497979    -1.0148243
H          -0.2273131    -1.4618261    -1.9719450
H          -0.3467710    -1.0098081    -0.2444465
H           0.5250548    -2.4736098    -0.7020617
O           1.9544329    -0.1070616    -2.1570581
18
234_C8H8O2_0-1-8-6 (165,) energy =    -460.1252107
C           1.6076290    -0.7543293    -1.1893183
O           2.1856384    -0.5387938     0.0285009
C           5.8441174     1.2574333     0.9468691
H           6.7880185     1.7197749     1.2212071
C           4.8484737     1.0639647     1.9073362
H           5.0111614     1.3728039     2.9362651
C           3.6393426     0.4720556     1.5515924
H           2.8527928     0.3086572     2.2815465
C           3.4244434     0.0740478     0.2294809
C           4.4096698     0.2548885    -0.7445637
H           4.2360955    -0.0492007    -1.7657843
C           5.6164346     0.8511008    -0.3674759
H           6.3853765     0.9962599    -1.1215150
C           0.2715103    -1.4309393    -0.9909855
H          -0.1930219    -1.6011394    -1.9626281
H          -0.3796333    -0.8075434    -0.3695935
H           0.4057815    -2.3843591    -0.4694931
O           2.0862237    -0.4511344    -2.2557853
18
234_C8H8O2_0-1-8-6 (180,) energy =    -460.1251557
C           1.6515578    -0.8545653    -1.1932869
O           2.1531226    -0.4471949     0.0077943
C           5.8506488     1.2516246     0.9537580
H           6.8008581     1.6950351     1.2373434
C           4.8734662     1.0032617     1.9208223
H           5.0558179     1.2512629     2.9628503
C           3.6567993     0.4346471     1.5546290
H           2.8826664     0.2324661     2.2881129
C           3.4153969     0.1128572     0.2157980
C           4.3800533     0.3542959    -0.7661718
H           4.1868763     0.1044591    -1.7981678
C           5.5954522     0.9259577    -0.3775940
H           6.3491268     1.1156872    -1.1371987
C           0.2592776    -1.4041257    -0.9868282
H          -0.1449211    -1.7282377    -1.9462174
H          -0.3883235    -0.6376705    -0.5486413
H           0.2859011    -2.2475241    -0.2890672
O           2.2247706    -0.7884820    -2.2546344
