17
408_C6H7N3O_16-0-1-8 (-165,) energy =    -472.3510206
C           1.4140621    -1.9872668     0.3959540
N           2.8076811    -1.8532644     0.3125558
H           3.2925433    -2.7106808     0.5563843
C           5.4063428     1.2582255     0.0297963
H           6.1139489     2.0758435    -0.0449942
C           4.0348004     1.4529978    -0.1009023
H           3.6209905     2.4433841    -0.2842160
N           3.1461327     0.4581158    -0.0127337
C           3.6545235    -0.7600103     0.2148497
N           4.9579857    -1.0721361     0.3601050
C           5.8137897    -0.0559902     0.2648887
H           6.8669263    -0.3066463     0.3828030
C           0.5345689    -0.8147315     0.0334561
H          -0.4994006    -1.1622131     0.0623872
H           0.7811004    -0.4214688    -0.9563324
H           0.6754659     0.0105197     0.7368641
O           0.9692556    -3.0654052     0.7508699
17
408_C6H7N3O_16-0-1-8 (-150,) energy =    -472.3495091
C           1.4110086    -1.9384340     0.4265369
N           2.7976380    -1.8433530     0.2068179
H           3.2764792    -2.6941440     0.4862509
C           5.4108421     1.2683455     0.0757527
H           6.1212558     2.0861470     0.0394669
C           4.0407195     1.4728729    -0.0563560
H           3.6314251     2.4713980    -0.2017637
N           3.1487112     0.4780294    -0.0157497
C           3.6522063    -0.7498904     0.1670424
N           4.9530042    -1.0718636     0.3089480
C           5.8128219    -0.0553648     0.2605484
H           6.8643023    -0.3139549     0.3760987
C           0.5215737    -0.8016721    -0.0156376
H          -0.5110499    -1.1503813     0.0407472
H           0.7654003    -0.4713190    -1.0285979
H           0.6574542     0.0664959     0.6355112
O           0.9850675    -2.9520523     0.9507933
17
408_C6H7N3O_16-0-1-8 (-135,) energy =    -472.3468476
C           1.4334032    -1.9437515     0.4863409
N           2.7998940    -1.8802407     0.1246063
H           3.2881309    -2.7183548     0.4289767
C           5.4164339     1.2345221     0.0842354
H           6.1263966     2.0534004     0.0702687
C           4.0445500     1.4435880    -0.0216882
H           3.6338414     2.4470432    -0.1223415
N           3.1533180     0.4474678    -0.0082827
C           3.6594470    -0.7866135     0.1211504
N           4.9611599    -1.1130585     0.2350339
C           5.8205624    -0.0948323     0.2141712
H           6.8733132    -0.3571596     0.3076603
C           0.5057325    -0.8782980    -0.0436373
H          -0.5201070    -1.2229378     0.0990936
H           0.7010754    -0.6677979    -1.0986693
H           0.6617861     0.0588404     0.4979343
O           1.0665198    -2.8629586     1.1933874
17
408_C6H7N3O_16-0-1-8 (-120,) energy =    -472.3432042
C           1.5049099    -1.8853602     0.4829697
N           2.8439257    -1.8297870    -0.0097229
H           3.3419988    -2.6690861     0.2785142
C           5.4837604     1.2689696     0.1165819
H           6.1988957     2.0829049     0.1456206
C           4.1119611     1.4921601     0.0428064
H           3.7062684     2.5021790     0.0127366
N           3.2152019     0.5021821     0.0026683
C           3.7132731    -0.7417608     0.0481009
N           5.0140545    -1.0807788     0.1257808
C           5.8800940    -0.0681538     0.1564224
H           6.9320865    -0.3424248     0.2191595
C           0.5110076    -0.9343451    -0.1304707
H          -0.4606939    -1.0831438     0.3426221
H           0.4364476    -1.1249853    -1.2074949
H           0.8531588     0.0967194    -0.0105668
O           1.2312782    -2.7056424     1.3347786
17
408_C6H7N3O_16-0-1-8 (-105,) energy =    -472.3390278
C           1.4440277    -1.7805466     0.5381405
N           2.7609359    -1.7975646    -0.0468009
H           3.2415501    -2.6507705     0.2323426
C           5.4663380     1.2364131     0.2044210
H           6.1958896     2.0356712     0.2653028
C           4.0971631     1.4861406     0.1677268
H           3.7087397     2.5028904     0.2002462
N           3.1833261     0.5146523     0.0917202
C           3.6619598    -0.7384074     0.0600295
N           4.9565620    -1.1032322     0.0968713
C           5.8400221    -0.1069981     0.1659581
H           6.8881339    -0.4010593     0.1959216
C           0.4214599    -0.9435846    -0.1813916
H          -0.5222207    -0.9686633     0.3657618
H           0.2780208    -1.3328364    -1.1961897
H           0.7914746     0.0818073    -0.2724860
O           1.2280269    -2.4290972     1.5376035
17
408_C6H7N3O_16-0-1-8 (-90,) energy =    -472.3346479
C           1.4546107    -1.6929823     0.5774407
N           2.7436164    -1.7717952    -0.0959444
H           3.2050168    -2.6459105     0.1502328
C           5.4774803     1.2229258     0.2536993
H           6.2112652     2.0161780     0.3381301
C           4.1079838     1.4769997     0.2685950
H           3.7249291     2.4916075     0.3671469
N           3.1898413     0.5129020     0.1662186
C           3.6656692    -0.7382211     0.0528905
N           4.9583286    -1.1078221     0.0356358
C           5.8459480    -0.1167896     0.1335775
H           6.8938505    -0.4130259     0.1199202
C           0.3747280    -1.0184475    -0.2207668
H          -0.5432484    -0.9567244     0.3660786
H           0.1959085    -1.5771739    -1.1467983
H           0.7196291    -0.0179993    -0.5015742
O           1.3228902    -2.1418547     1.6908567
17
408_C6H7N3O_16-0-1-8 (-75,) energy =    -472.3323460
C           1.2963256    -1.2819494     0.7172481
N           2.6854198    -1.5651593     0.4936538
H           2.8541337    -2.2558727    -0.2318889
C           5.6286634     1.2332481     0.2886542
H           6.4241097     1.9679347     0.2384172
C           4.4218002     1.4913409     0.9365409
H           4.2333681     2.4522464     1.4132343
N           3.4320800     0.5989954     1.0143284
C           3.6668758    -0.5789693     0.4216260
N           4.7744263    -0.9391955    -0.2531619
C           5.7429728    -0.0228754    -0.3052770
H           6.6417078    -0.3095608    -0.8495218
C           0.4126707    -1.5381554    -0.4894857
H          -0.6355456    -1.4519418    -0.1992180
H           0.5931398    -2.5372915    -0.9058703
H           0.6359227    -0.8112673    -1.2798628
O           0.8724331    -0.9675374     1.8014187
17
408_C6H7N3O_16-0-1-8 (-60,) energy =    -472.3366835
C           1.2491846    -1.1791106     0.6261063
N           2.6238099    -1.4498267     0.3847438
H           2.7956879    -2.1236890    -0.3547390
C           5.6898824     1.2235951     0.3407071
H           6.5176142     1.9234879     0.3270627
C           4.5054877     1.4902366     1.0253956
H           4.3686486     2.4228575     1.5708367
N           3.4774746     0.6390115     1.0618827
C           3.6476680    -0.5007397     0.3833213
N           4.7299152    -0.8662630    -0.3288467
C           5.7401541     0.0053621    -0.3350394
H           6.6188447    -0.2865215    -0.9083258
C           0.3327629    -1.6804725    -0.4784031
H          -0.7036597    -1.5982303    -0.1483997
H           0.5499372    -2.7262681    -0.7296816
H           0.4737248    -1.0873557    -1.3900760
O           0.8457745    -0.6954208     1.6571335
17
408_C6H7N3O_16-0-1-8 (-45,) energy =    -472.3406041
C           1.2109385    -1.1013972     0.5278226
N           2.5741142    -1.3491434     0.2591672
H           2.7554194    -2.0253674    -0.4745481
C           5.7337150     1.2091142     0.3923586
H           6.5861585     1.8783163     0.4211191
C           4.5578045     1.4770087     1.0904866
H           4.4538021     2.3792032     1.6914756
N           3.4993216     0.6625093     1.0770245
C           3.6296552    -0.4377298     0.3304075
N           4.7027039    -0.8024472    -0.3970440
C           5.7443694     0.0295395    -0.3506880
H           6.6156702    -0.2624374    -0.9350540
C           0.2794907    -1.7977691    -0.4544199
H          -0.7421614    -1.7325309    -0.0783765
H           0.5503549    -2.8527615    -0.5843021
H           0.3335466    -1.3177421    -1.4391055
O           0.8183413    -0.4773051     1.4871393
17
408_C6H7N3O_16-0-1-8 (-30,) energy =    -472.3434853
C           1.2045464    -1.0357883     0.4376236
N           2.5569704    -1.2462071     0.1245879
H           2.7480616    -1.9375230    -0.5911138
C           5.7877601     1.2025123     0.4403477
H           6.6596612     1.8426249     0.5142475
C           4.6097269     1.4718187     1.1338238
H           4.5243899     2.3453062     1.7785708
N           3.5262762     0.6932808     1.0642859
C           3.6344555    -0.3716659     0.2654340
N           4.7102084    -0.7365359    -0.4592745
C           5.7758791     0.0585884    -0.3566989
H           6.6486825    -0.2340365    -0.9384880
C           0.2701342    -1.8869380    -0.4131949
H          -0.7272726    -1.8559114     0.0267698
H           0.6090535    -2.9280935    -0.4715276
H           0.2210445    -1.4933192    -1.4358647
O           0.8154707    -0.3039510     1.3205743
17
408_C6H7N3O_16-0-1-8 (-15,) energy =    -472.3451634
C           1.1983685    -0.9845382     0.3688370
N           2.5336340    -1.1359941    -0.0217593
H           2.7339104    -1.8469125    -0.7142928
C           5.8287808     1.1864323     0.4941938
H           6.7181986     1.7934720     0.6201943
C           4.6385921     1.4692692     1.1607682
H           4.5611498     2.3194332     1.8369582
N           3.5316430     0.7335493     1.0250968
C           3.6310217    -0.3047515     0.1909528
N           4.7185366    -0.6804443    -0.5112894
C           5.8055171     0.0737187    -0.3458373
H           6.6870303    -0.2272251    -0.9100047
C           0.2701398    -1.9514062    -0.3574077
H          -0.7001340    -1.9391822     0.1402492
H           0.6649192    -2.9741125    -0.3597769
H           0.1367619    -1.6403165    -1.4008333
O           0.8113149    -0.1934778     1.2010078
17
408_C6H7N3O_16-0-1-8 (0,) energy =    -472.3456785
C           1.2279094    -0.9148163     0.3210316
N           2.5355034    -0.9653732    -0.1701116
H           2.7485406    -1.6805971    -0.8541428
C           5.8742207     1.2233945     0.5866323
H           6.7754445     1.7957573     0.7752175
C           4.6691526     1.5065260     1.2259338
H           4.5899100     2.3210698     1.9444001
N           3.5464967     0.8154339     1.0093767
C           3.6476676    -0.1828338     0.1278755
N           4.7494093    -0.5552544    -0.5538822
C           5.8497199     0.1576327    -0.3121635
H           6.7421193    -0.1395588    -0.8608961
C           0.3387339    -1.9850653    -0.3025991
H          -0.6610527    -1.8922561     0.1223401
H           0.7259232    -2.9901642    -0.0963721
H           0.2801906    -1.8648204    -1.3910570
O           0.8316906    -0.1200363     1.1456297
17
408_C6H7N3O_16-0-1-8 (15,) energy =    -472.3451634
C           1.1610583    -0.8896300     0.2574064
N           2.4282660    -0.8674276    -0.3360137
H           2.6348910    -1.5941769    -1.0100061
C           5.8560349     1.1167344     0.5757447
H           6.7798958     1.6359136     0.8045892
C           4.6566647     1.4227818     1.2150493
H           4.6072537     2.2013935     1.9748725
N           3.5052933     0.8003381     0.9468508
C           3.5729303    -0.1567994     0.0178421
N           4.6662547    -0.5470574    -0.6672319
C           5.7950075     0.1005961    -0.3771795
H           6.6805039    -0.2103247    -0.9295780
C           0.3095752    -2.0519178    -0.2405162
H          -0.7194056    -1.8902028     0.0824216
H           0.6694573    -2.9972002     0.1840169
H           0.3381962    -2.1418795    -1.3327041
O           0.7646368    -0.0749228     1.0618888
17
408_C6H7N3O_16-0-1-8 (30,) energy =    -472.3434853
C           1.1255185    -0.8344871     0.2018581
N           2.3611776    -0.7471431    -0.4590791
H           2.5742243    -1.4942080    -1.1095928
C           5.8446483     1.0573325     0.6101349
H           6.7824060     1.5295376     0.8804115
C           4.6419458     1.3893057     1.2302140
H           4.6042716     2.1410779     2.0172214
N           3.4738012     0.8266932     0.9081475
C           3.5280146    -0.1004282    -0.0517931
N           4.6225515    -0.5129504    -0.7206662
C           5.7682274     0.0781912    -0.3795257
H           6.6550766    -0.2500541    -0.9195695
C           0.3499638    -2.0903614    -0.1759902
H          -0.6759950    -1.9865922     0.1789617
H           0.8018325    -2.9730843     0.2928514
H           0.3443149    -2.2536015    -1.2602400
O           0.6904060     0.0144434     0.9478884
17
408_C6H7N3O_16-0-1-8 (45,) energy =    -472.3406041
C           1.0778885    -0.7623751     0.1310930
N           2.2951933    -0.6381769    -0.5721468
H           2.5108952    -1.4018579    -1.2036151
C           5.8167520     0.9973411     0.6399677
H           6.7629239     1.4276040     0.9481093
C           4.6137894     1.3339865     1.2575970
H           4.5846139     2.0452592     2.0817324
N           3.4359474     0.8237604     0.8883622
C           3.4795895    -0.0552656    -0.1168040
N           4.5727877    -0.4711282    -0.7843469
C           5.7293381     0.0679809    -0.3955400
H           6.6159985    -0.2629770    -0.9342416
C           0.4009638    -2.1072898    -0.0931985
H          -0.6124445    -2.0631796     0.3074206
H           0.9562709    -2.9047643     0.4153507
H           0.3575780    -2.3611533    -1.1594614
O           0.5783597     0.1340151     0.7720827
17
408_C6H7N3O_16-0-1-8 (60,) energy =    -472.3366835
C           1.0514925    -0.6753373     0.0368199
N           2.2617576    -0.5269939    -0.6942004
H           2.4720146    -1.2984724    -1.3195643
C           5.8015776     0.9387651     0.6736990
H           6.7510450     1.3283333     1.0228756
C           4.5956684     1.2600463     1.2943829
H           4.5673570     1.9158488     2.1633677
N           3.4149595     0.7980615     0.8757862
C           3.4565223    -0.0135815    -0.1862648
N           4.5519814    -0.4125713    -0.8591885
C           5.7124117     0.0761890    -0.4177515
H           6.6015562    -0.2421723    -0.9599866
C           0.4929739    -2.0887382    -0.0017588
H          -0.5113467    -2.0884301     0.4238912
H           1.1332039    -2.7680878     0.5739103
H           0.4495029    -2.4700181    -1.0297325
O           0.4726644     0.2552210     0.5454770
17
408_C6H7N3O_16-0-1-8 (75,) energy =    -472.3323460
C           1.0276828    -0.5973345    -0.0834035
N           2.2402909    -0.4305812    -0.8327767
H           2.4374496    -1.1935921    -1.4737950
C           5.7697902     0.8734080     0.7093129
H           6.7150693     1.2261575     1.1055937
C           4.5548922     1.1517938     1.3333419
H           4.5151204     1.7335975     2.2531273
N           3.3799628     0.7315596     0.8591883
C           3.4350851     0.0117896    -0.2690487
N           4.5407984    -0.3435567    -0.9494139
C           5.6952600     0.0988450    -0.4474776
H           6.5930469    -0.1852648    -0.9946303
C           0.6114596    -2.0447582     0.1021146
H          -0.3875126    -2.0841625     0.5390897
H           1.3214241    -2.5583609     0.7617102
H           0.6103876    -2.5809881    -0.8553166
O           0.3588322     0.3412042     0.2712080
17
408_C6H7N3O_16-0-1-8 (90,) energy =    -472.3346479
C           1.0895596    -0.7625520    -0.5105235
N           2.4416612    -1.0020037    -0.9959914
H           2.4849574    -0.8103608    -1.9954760
C           5.6465895     0.7917714     0.7576981
H           6.5069554     1.2623202     1.2194042
C           4.5180743     0.4315263     1.4904824
H           4.4618121     0.6130439     2.5627501
N           3.4492183    -0.1483402     0.9388914
C           3.5186670    -0.3634828    -0.3852898
N           4.5446250    -0.0531991    -1.1970813
C           5.5966850     0.5186071    -0.6090225
H           6.4293166     0.7711462    -1.2639961
C           0.6421422    -1.7000585     0.5753763
H          -0.3580783    -1.4288565     0.9172628
H           1.3585797    -1.6466472     1.4015547
H           0.6482937    -2.7300330     0.2001423
O           0.4289134     0.1365787    -0.9727381
17
408_C6H7N3O_16-0-1-8 (105,) energy =    -472.3390278
C           1.0673154    -0.8203741    -0.5845900
N           2.4309558    -0.9563468    -1.0303363
H           2.4856287    -0.7238235    -2.0201924
C           5.6589430     0.7453762     0.7784121
H           6.5260325     1.1940039     1.2492145
C           4.5481376     0.3364766     1.5113938
H           4.5118652     0.4555116     2.5931634
N           3.4711631    -0.2191173     0.9491609
C           3.5127560    -0.3580587    -0.3847125
N           4.5222132     0.0039999    -1.1973372
C           5.5827445     0.5488219    -0.6005125
H           6.4003580     0.8423401    -1.2572188
C           0.6921379    -1.6335292     0.6244994
H          -0.3432220    -1.4250619     0.8985616
H           1.3693321    -1.3911740     1.4487019
H           0.8144171    -2.6998483     0.4010756
O           0.3120008    -0.0944007    -1.1917664
17
408_C6H7N3O_16-0-1-8 (120,) energy =    -472.3432042
C           1.1082106    -0.8742196    -0.6993279
N           2.4802795    -0.9027584    -1.0935489
H           2.5512990    -0.6534933    -2.0776238
C           5.7163448     0.6760405     0.8096710
H           6.5869387     1.0936698     1.3020169
C           4.6084708     0.2264515     1.5221139
H           4.5777237     0.2806618     2.6091948
N           3.5276758    -0.2943678     0.9334935
C           3.5610984    -0.3538357    -0.4054911
N           4.5691500     0.0533536    -1.1998640
C           5.6334853     0.5604710    -0.5782571
H           6.4487377     0.8896819    -1.2207773
C           0.7550856    -1.5564987     0.5961947
H          -0.3164317    -1.4509899     0.7719224
H           1.3327827    -1.1259290     1.4180306
H           1.0223121    -2.6180974     0.5371851
O           0.3025879    -0.3385981    -1.4324017
17
408_C6H7N3O_16-0-1-8 (135,) energy =    -472.3468476
C           1.0260356    -0.9054156    -0.7277562
N           2.3770272    -0.8022850    -1.1356402
H           2.4339079    -0.5408730    -2.1163952
C           5.6582936     0.6179617     0.8049402
H           6.5415392     0.9951101     1.3073746
C           4.5576507     0.1356089     1.5070193
H           4.5461490     0.1214293     2.5957809
N           3.4603067    -0.3350921     0.9061810
C           3.4732964    -0.3120968    -0.4336619
N           4.4729008     0.1315618    -1.2197600
C           5.5519001     0.5899949    -0.5862048
H           6.3603420     0.9504340    -1.2205118
C           0.7362988    -1.4660294     0.6427931
H          -0.3234642    -1.7242317     0.6843790
H           0.9679169    -0.7216691     1.4097101
H           1.3573275    -2.3403890     0.8558200
O           0.1604486    -0.5535332    -1.5064717
17
408_C6H7N3O_16-0-1-8 (150,) energy =    -472.3495091
C           1.0298003    -0.9667648    -0.7096364
N           2.3566056    -0.7191137    -1.1075239
H           2.4103693    -0.4863763    -2.0945192
C           5.6670029     0.6153318     0.8390643
H           6.5584331     0.9716950     1.3422155
C           4.5760235     0.1083042     1.5384977
H           4.5805190     0.0520355     2.6259402
N           3.4684941    -0.3371430     0.9368360
C           3.4616685    -0.2642027    -0.4008263
N           4.4516632     0.2060843    -1.1848031
C           5.5405131     0.6387466    -0.5506832
H           6.3409740     1.0200231    -1.1829190
C           0.7638690    -1.4193116     0.7057512
H          -0.2716856    -1.7605662     0.7533001
H           0.9164149    -0.5938241     1.4068033
H           1.4494618    -2.2148078     1.0087717
O           0.1495112    -0.8223119    -1.5390441
17
408_C6H7N3O_16-0-1-8 (165,) energy =    -472.3510207
C           1.4616268    -1.9726489     0.2929491
N           2.8345819    -1.7757771     0.5010709
H           3.3292508    -2.6479025     0.6570532
C           5.4341623     1.2987571    -0.0496721
H           6.1417030     2.1075605    -0.1911408
C           4.0614040     1.4864071    -0.1779404
H           3.6469299     2.4619402    -0.4274539
N           3.1724978     0.5026189    -0.0068338
C           3.6823107    -0.6978932     0.2981946
N           4.9871964    -1.0017908     0.4480735
C           5.8431069     0.0033722     0.2714993
H           6.8974593    -0.2409571     0.3918941
C           0.5655594    -0.7759509     0.0814002
H          -0.4625587    -1.1403641     0.0527210
H           0.8108099    -0.2655482    -0.8541078
H           0.6910298    -0.0371948     0.8773181
O           1.0458106    -3.1186288     0.3052889
17
408_C6H7N3O_16-0-1-8 (180,) energy =    -472.3515016
C           1.4392301    -1.9678960     0.3432228
N           2.8290033    -1.8026147     0.4056783
H           3.3163909    -2.6694497     0.6059614
C           5.4283706     1.2927163    -0.0048838
H           6.1361784     2.1065736    -0.1116606
C           4.0565623     1.4842887    -0.1370972
H           3.6427269     2.4678373    -0.3540790
N           3.1672350     0.4943277    -0.0095079
C           3.6753208    -0.7158190     0.2577388
N           4.9793420    -1.0240705     0.4081389
C           5.8357780    -0.0129592     0.2740993
H           6.8892298    -0.2606159     0.3955781
C           0.5599056    -0.7738524     0.0586581
H          -0.4736094    -1.1235752     0.0663599
H           0.8029125    -0.3262182    -0.9089599
H           0.7041043     0.0113424     0.8054574
O           0.9950919    -3.0889766     0.5247216
