17
408_C6H7N3O_0-1-8-9 (-165,) energy =    -472.3454730
C           1.2190863    -0.8830479     0.2706403
N           2.5614251    -1.0445251    -0.0871196
H           2.7774625    -1.7668453    -0.7628816
C           5.8605926     1.2389237     0.5605732
H           6.7500968     1.8381540     0.7193306
C           4.6891772     1.4446701     1.2862376
H           4.6282903     2.2210037     2.0475389
N           3.5832887     0.7156955     1.1115733
C           3.6620983    -0.2312338     0.1728457
N           4.7320631    -0.5311390    -0.5895583
C           5.8209598     0.2090315    -0.3784253
H           6.6898954    -0.0335526    -0.9883202
C           0.3321021    -1.9796700    -0.3080484
H          -0.6939378    -1.7984287     0.0132047
H           0.6509115    -2.9689224     0.0412652
H           0.3699529    -1.9827713    -1.4042236
O           0.7959187     0.0172029     0.9627866
17
408_C6H7N3O_0-1-8-9 (-150,) energy =    -472.3447881
C           1.2154385    -0.8701920     0.2142648
N           2.5730482    -1.1364685    -0.0037653
H           2.7893254    -1.8698424    -0.6682157
C           5.8259464     1.2438305     0.5313041
H           6.7006104     1.8711721     0.6617808
C           4.6928889     1.3767044     1.3317349
H           4.6504261     2.1207602     2.1257202
N           3.6087011     0.6083476     1.1954214
C           3.6648502    -0.2943246     0.2121421
N           4.6957728    -0.5223732    -0.6226996
C           5.7706243     0.2473052    -0.4416330
H           6.6117542     0.0593589    -1.1071594
C           0.3140415    -1.9768969    -0.3188213
H          -0.7207936    -1.7193805    -0.0915287
H           0.5594308    -2.9396457     0.1443900
H           0.4248201    -2.0890708    -1.4044159
O           0.7947143     0.1211804     0.7698441
17
408_C6H7N3O_0-1-8-9 (-135,) energy =    -472.3434510
C           1.2393090    -0.8534315     0.1645040
N           2.5939037    -1.2146754     0.1090299
H           2.8154243    -1.9741104    -0.5250417
C           5.7933307     1.2675785     0.5155943
H           6.6493807     1.9257841     0.6139285
C           4.7053978     1.3347541     1.3846567
H           4.6815389     2.0548556     2.2011008
N           3.6477911     0.5245830     1.2897787
C           3.6794795    -0.3462257     0.2768278
N           4.6628048    -0.5068185    -0.6245673
C           5.7199719     0.2967535    -0.4809922
H           6.5273098     0.1600015    -1.1986983
C           0.3171727    -1.9580012    -0.3332868
H          -0.7151991    -1.6519730    -0.1614765
H           0.5123970    -2.9011932     0.1892281
H           0.4616600    -2.1322717    -1.4069094
O           0.8407522     0.2164572     0.5711588
17
408_C6H7N3O_0-1-8-9 (-120,) energy =    -472.3413122
C           1.2753107    -0.8347135     0.1082558
N           2.6060909    -1.2706804     0.2152731
H           2.8328564    -2.0648151    -0.3740471
C           5.7641474     1.2893899     0.4992515
H           6.6036449     1.9724021     0.5677162
C           4.7375120     1.2847447     1.4426093
H           4.7465113     1.9714148     2.2875199
N           3.7038245     0.4408471     1.3842895
C           3.6943101    -0.3865012     0.3356675
N           4.6109463    -0.4705248    -0.6396835
C           5.6526340     0.3603855    -0.5323615
H           6.4109614     0.2830147    -1.3097695
C           0.3304608    -1.9339489    -0.3539287
H          -0.6914508    -1.5562905    -0.3089188
H           0.4226772    -2.8233052     0.2793192
H           0.5539994    -2.2316874    -1.3860692
O           0.9155884     0.2926826     0.3730110
17
408_C6H7N3O_0-1-8-9 (-105,) energy =    -472.3384489
C           1.3096025    -0.8260899     0.0409041
N           2.5991782    -1.3053817     0.3226898
H           2.8374417    -2.1480463    -0.1909962
C           5.7362044     1.3039309     0.4854776
H           6.5648359     2.0026350     0.5226546
C           4.7829521     1.2346323     1.5001999
H           4.8396308     1.8854359     2.3711218
N           3.7646266     0.3696028     1.4769947
C           3.6960253    -0.4131403     0.3978713
N           4.5342649    -0.4276607    -0.6462727
C           5.5654124     0.4216242    -0.5781825
H           6.2629802     0.3993667    -1.4137411
C           0.3420753    -1.9190122    -0.3854692
H          -0.6573916    -1.4899576    -0.4635181
H           0.3352476    -2.7412851     0.3383744
H           0.6282293    -2.3319502    -1.3609056
O           0.9976708     0.3412257     0.1540080
17
408_C6H7N3O_0-1-8-9 (-90,) energy =    -472.3356229
C           1.3518095    -0.9592450    -0.2658510
N           2.6549886    -1.3707488     0.0363698
H           2.7012464    -2.0631190     0.7777584
C           5.6534730     1.3889002     0.4136553
H           6.4515146     2.1163913     0.5149872
C           4.9210625     0.9428088     1.5106306
H           5.1305126     1.3026136     2.5165164
N           3.9253456     0.0568789     1.3938020
C           3.6793834    -0.3877598     0.1564620
N           4.3471805    -0.0787511    -0.9563477
C           5.3172435     0.8311745    -0.8182925
H           5.8530617     1.1031792    -1.7261078
C           0.2908638    -2.0040911     0.0400520
H          -0.6371929    -1.7165449    -0.4555814
H           0.1091261    -2.0524923     1.1212002
H           0.5978077    -2.9999542    -0.2966440
O           1.1053902     0.1280895    -0.7499958
17
408_C6H7N3O_0-1-8-9 (-75,) energy =    -472.3388043
C           1.3567943    -0.9932243    -0.3436266
N           2.6317624    -1.3367929     0.1336367
H           2.6086311    -1.9211279     0.9637371
C           5.6690913     1.3772934     0.4117427
H           6.4815075     2.0915099     0.4890896
C           5.0263428     0.8690822     1.5373756
H           5.3242456     1.1640901     2.5420910
N           4.0119692     0.0011747     1.4526321
C           3.6599168    -0.3673590     0.2142504
N           4.2390954     0.0011664    -0.9311671
C           5.2239507     0.8969705    -0.8191678
H           5.6862384     1.2197137    -1.7505660
C           0.2860103    -2.0147395     0.0053502
H          -0.5978242    -1.8164208    -0.6021679
H           0.0093417    -1.9268236     1.0636669
H           0.6343489    -3.0381745    -0.1694912
O           1.1402926     0.0145300    -0.9844544
17
408_C6H7N3O_0-1-8-9 (-60,) energy =    -472.3416812
C           1.3513164    -1.0338103    -0.4156242
N           2.5815613    -1.2810220     0.2144822
H           2.5149715    -1.8003085     1.0835933
C           5.6833037     1.3521845     0.4148763
H           6.5140077     2.0465331     0.4757050
C           5.1071772     0.7919702     1.5523655
H           5.4782219     1.0242656     2.5492504
N           4.0716536    -0.0509702     1.4908570
C           3.6290713    -0.3434216     0.2588633
N           4.1360751     0.0799346    -0.9025397
C           5.1453704     0.9493347    -0.8069078
H           5.5509077     1.3155060    -1.7487163
C           0.2742066    -2.0356930    -0.0274583
H          -0.5645559    -1.9305417    -0.7165237
H          -0.0822080    -1.8353011     0.9909189
H           0.6510078    -3.0637323    -0.0573920
O           1.1686426    -0.1212066    -1.1929422
17
408_C6H7N3O_0-1-8-9 (-45,) energy =    -472.3437114
C           1.3454873    -1.0709688    -0.4642308
N           2.5218872    -1.2017868     0.2875424
H           2.4262997    -1.6817289     1.1752406
C           5.7041196     1.3314589     0.4195172
H           6.5558010     2.0011142     0.4640637
C           5.1766982     0.7282096     1.5592055
H           5.6101953     0.9025233     2.5426826
N           4.1182858    -0.0853409     1.5175106
C           3.5972276    -0.3052929     0.2985824
N           4.0442322     0.1707955    -0.8672140
C           5.0838882     1.0051179    -0.7855869
H           5.4434625     1.4098399    -1.7303472
C           0.2672914    -2.0587681    -0.0400867
H          -0.5218135    -2.0558843    -0.7928136
H          -0.1659931    -1.7601843     0.9228788
H           0.6682014    -3.0723532     0.0698687
O           1.1962018    -0.2608844    -1.3533723
17
408_C6H7N3O_0-1-8-9 (-30,) energy =    -472.3449038
C           1.3469580    -1.1103336    -0.5047429
N           2.4632393    -1.1134193     0.3400781
H           2.3566987    -1.5709565     1.2374390
C           5.7270595     1.3085564     0.4242538
H           6.6009610     1.9492255     0.4619533
C           5.2334987     0.6641794     1.5574199
H           5.7157291     0.7770564     2.5271978
N           4.1523150    -0.1171257     1.5266780
C           3.5668475    -0.2595958     0.3230514
N           3.9664676     0.2723130    -0.8354959
C           5.0384418     1.0659595    -0.7628366
H           5.3627763     1.5114398    -1.7021052
C           0.2637681    -2.0756555    -0.0392502
H          -0.4743714    -2.1770807    -0.8355366
H          -0.2368204    -1.6855088     0.8558369
H           0.6756901    -3.0607352     0.2069575
O           1.2386381    -0.4163477    -1.4923404
17
408_C6H7N3O_0-1-8-9 (-15,) energy =    -472.3454972
C           1.7717920    -1.8589642     0.0775521
N           2.2051338    -0.5302518     0.0296981
H           1.5609489     0.1563145    -0.3426900
C           5.8475996     1.1883443     0.5725672
H           6.8122040     1.6635731     0.7109907
C           4.7669271     1.8606855     0.0032245
H           4.8530008     2.8964723    -0.3217920
N           3.5769967     1.2866091    -0.1775329
C           3.4747415     0.0064519     0.2310514
N           4.4272281    -0.7330077     0.8055119
C           5.6083766    -0.1282164     0.9605509
H           6.3898451    -0.7286407     1.4240029
C           0.3062173    -2.0001535    -0.3178075
H          -0.0064071    -3.0261342    -0.1213053
H           0.1728969    -1.7877811    -1.3858551
H          -0.3330957    -1.3099302     0.2446627
O           2.4698667    -2.8003178     0.3862510
17
408_C6H7N3O_0-1-8-9 (0,) energy =    -472.3456705
C           1.7568826    -1.8492833     0.1312902
N           2.2389797    -0.5513130    -0.0598673
H           1.5991954     0.1334214    -0.4425871
C           5.8472980     1.1964424     0.6000010
H           6.8024919     1.6806055     0.7691550
C           4.7515727     1.8842256     0.0795679
H           4.8171308     2.9404345    -0.1774809
N           3.5715090     1.3016207    -0.1334091
C           3.4959807    -0.0059186     0.1863341
N           4.4707986    -0.7685127     0.6882279
C           5.6382786    -0.1503852     0.8883443
H           6.4362103    -0.7682876     1.2976594
C           0.3058308    -1.9971448    -0.3134024
H          -0.0510847    -2.9795142    -0.0026230
H           0.2291049    -1.9209730    -1.4050144
H          -0.3350274    -1.2223512     0.1233851
O           2.4075408    -2.7660287     0.5840290
17
408_C6H7N3O_0-1-8-9 (15,) energy =    -472.3454890
C           1.7371784    -1.8262671     0.1811110
N           2.2608547    -0.5735778    -0.1535044
H           1.6240530     0.1078173    -0.5471183
C           5.8335051     1.2011399     0.6232025
H           6.7795717     1.6911801     0.8239117
C           4.7238462     1.9008603     0.1509301
H           4.7694902     2.9722623    -0.0385753
N           3.5531949     1.3115190    -0.0950006
C           3.5037245    -0.0152102     0.1363064
N           4.5000016    -0.7943192     0.5658981
C           5.6539441    -0.1675531     0.8117752
H           6.4679943    -0.7977251     1.1670126
C           0.3040686    -2.0007351    -0.3085101
H          -0.0882258    -2.9327906     0.0993924
H           0.2772484    -2.0519539    -1.4037454
H          -0.3383280    -1.1690337     0.0041918
O           2.3447295    -2.6896176     0.7764391
17
408_C6H7N3O_0-1-8-9 (30,) energy =    -472.3448851
C           1.7228504    -1.7846371     0.2230514
N           2.2896875    -0.5952140    -0.2501260
H           1.6575165     0.0850322    -0.6539581
C           5.8284337     1.1909547     0.6533242
H           6.7668324     1.6807782     0.8879982
C           4.7071864     1.9038464     0.2323103
H           4.7359518     2.9862230     0.1166587
N           3.5434133     1.3140355    -0.0475578
C           3.5174009    -0.0247943     0.0884110
N           4.5319983    -0.8180894     0.4439243
C           5.6744435    -0.1915975     0.7379670
H           6.5021069    -0.8319744     1.0392275
C           0.3076714    -2.0011889    -0.2981739
H          -0.1209864    -2.8630961     0.2140924
H           0.3260593    -2.1990263    -1.3766019
H          -0.3297555    -1.1250868    -0.1294587
O           2.2920254    -2.5719134     0.9477439
17
408_C6H7N3O_0-1-8-9 (45,) energy =    -472.3436848
C           1.7314151    -1.7292727     0.2536554
N           2.3478045    -0.6263376    -0.3549921
H           1.7230894     0.0480692    -0.7814245
C           5.8409470     1.1782069     0.6909007
H           6.7684803     1.6696274     0.9626574
C           4.7066930     1.8974765     0.3205433
H           4.7132318     2.9856429     0.2818927
N           3.5537910     1.3049143    -0.0006670
C           3.5559210    -0.0384106     0.0368118
N           4.5901913    -0.8351051     0.3227040
C           5.7183484    -0.2104395     0.6698175
H           6.5607554    -0.8534821     0.9201097
C           0.3304839    -1.9899863    -0.2821862
H          -0.1316311    -2.7721432     0.3209585
H           0.3808646    -2.3236375    -1.3253594
H          -0.2946655    -1.0897098    -0.2492233
O           2.2630412    -2.4219749     1.0944788
17
408_C6H7N3O_0-1-8-9 (60,) energy =    -472.3416404
C           1.7215987    -1.6685212     0.2819936
N           2.3922221    -0.6768218    -0.4515166
H           1.7831364    -0.0154454    -0.9210747
C           5.8298455     1.1689929     0.7228761
H           6.7441099     1.6656037     1.0285071
C           4.6721792     1.8790772     0.4151433
H           4.6456027     2.9665467     0.4608833
N           3.5345307     1.2759235     0.0561771
C           3.5785621    -0.0629468    -0.0116842
N           4.6408363    -0.8460187     0.1984122
C           5.7513160    -0.2170057     0.5911897
H           6.6155896    -0.8503770     0.7846136
C           0.3335049    -1.9735376    -0.2603945
H          -0.1713133    -2.6463520     0.4336181
H           0.4120107    -2.4598106    -1.2397482
H          -0.2666577    -1.0645921    -0.3865071
O           2.2146099    -2.2509039     1.2248392
17
408_C6H7N3O_0-1-8-9 (75,) energy =    -472.3387469
C           1.6988559    -1.6061351     0.3088459
N           2.4394088    -0.7539277    -0.5265260
H           1.8645616    -0.1178504    -1.0699168
C           5.8142960     1.1607352     0.7452941
H           6.7120451     1.6725485     1.0743318
C           4.6224374     1.8405741     0.5093111
H           4.5506086     2.9192687     0.6375721
N           3.5056108     1.2156139     0.1198762
C           3.6053181    -0.1090920    -0.0484498
N           4.7031983    -0.8575997     0.0848289
C           5.7933813    -0.2134775     0.5107233
H           6.6869636    -0.8210540     0.6437022
C           0.3241610    -1.9499474    -0.2419837
H          -0.2233474    -2.5153384     0.5128678
H           0.4247757    -2.5600067    -1.1471006
H          -0.2458104    -1.0516342    -0.5072632
O           2.1397164    -2.0612491     1.3441116
17
408_C6H7N3O_0-1-8-9 (90,) energy =    -472.3355414
C           1.6760996    -1.5274446     0.3318698
N           2.4911735    -0.8330211    -0.5691291
H           1.9743569    -0.2740089    -1.2404979
C           5.8065400     1.1623147     0.7633576
H           6.6860979     1.6929620     1.1114555
C           4.5740023     1.7945309     0.6222619
H           4.4501349     2.8522890     0.8479725
N           3.4801239     1.1453865     0.2075781
C           3.6412580    -0.1517159    -0.0762367
N           4.7785441    -0.8481642    -0.0352828
C           5.8506116    -0.1851301     0.4108126
H           6.7778250    -0.7529980     0.4659439
C           0.3198702    -1.9142535    -0.2357536
H          -0.2844764    -2.3430220     0.5643817
H           0.4439847    -2.6578969    -1.0313805
H          -0.2041351    -1.0516177    -0.6640703
O           2.0518537    -1.8397035     1.4451157
17
408_C6H7N3O_0-1-8-9 (105,) energy =    -472.3384484
C           1.4273160    -1.1260086     0.3912978
N           2.3078342    -0.5623511    -0.5463081
H           2.4417354    -1.1388233    -1.3712152
C           5.8146054     1.1041603     0.7190955
H           6.7459671     1.5409172     1.0626193
C           4.5869116     1.7344341     0.9157597
H           4.5222620     2.6944364     1.4251502
N           3.4321757     1.2172296     0.4857773
C           3.5210647     0.0331218    -0.1240509
N           4.6324099    -0.6775569    -0.3541365
C           5.7771721    -0.1179806     0.0527792
H           6.6867094    -0.6805539    -0.1509552
C           0.3926529    -2.0480902    -0.2344991
H          -0.3214976    -2.3447796     0.5343135
H           0.8701851    -2.9480603    -0.6417870
H          -0.1342522    -1.5473704    -1.0541300
O           1.4756045    -0.8770312     1.5780589
17
408_C6H7N3O_0-1-8-9 (120,) energy =    -472.3413119
C           1.3700119    -1.0759558     0.3901067
N           2.3637842    -0.6526688    -0.5075263
H           2.5302156    -1.2928778    -1.2768111
C           5.8296026     1.1226327     0.6942721
H           6.7542368     1.5885520     1.0166382
C           4.5835677     1.6772496     0.9836222
H           4.4976833     2.6057111     1.5458090
N           3.4346959     1.1270579     0.5818072
C           3.5504813    -0.0196034    -0.0934465
N           4.6839956    -0.6564520    -0.4223237
C           5.8180210    -0.0609999    -0.0396147
H           6.7425935    -0.5621271    -0.3214785
C           0.3663329    -2.0254935    -0.2468223
H          -0.4283430    -2.2257277     0.4724460
H           0.8456797    -2.9739456    -0.5199247
H          -0.0617649    -1.5915451    -1.1572610
O           1.3087356    -0.7093993     1.5444037
17
408_C6H7N3O_0-1-8-9 (135,) energy =    -472.3434508
C           1.3121018    -1.0388413     0.3811175
N           2.4091465    -0.7434219    -0.4421231
H           2.5980331    -1.4195895    -1.1735432
C           5.8424951     1.1423628     0.6620231
H           6.7630825     1.6360081     0.9528135
C           4.5920315     1.6238320     1.0466117
H           4.4980724     2.5225677     1.6541827
N           3.4459469     1.0392629     0.6878929
C           3.5713876    -0.0704649    -0.0456960
N           4.7127096    -0.6337856    -0.4761440
C           5.8386362    -0.0055440    -0.1275099
H           6.7660309    -0.4483133    -0.4873602
C           0.3396944    -2.0154492    -0.2660795
H          -0.5328350    -2.1159759     0.3800985
H           0.8034655    -3.0017993    -0.3923005
H           0.0255728    -1.6631336    -1.2549991
O           1.1472126    -0.5646432     1.4842164
17
408_C6H7N3O_0-1-8-9 (150,) energy =    -472.3447879
C           1.2678189    -1.0036060     0.3701097
N           2.4562203    -0.8384763    -0.3523694
H           2.6596825    -1.5391002    -1.0551008
C           5.8579946     1.1621939     0.6267794
H           6.7736176     1.6850932     0.8794251
C           4.6133119     1.5795775     1.0944549
H           4.5186240     2.4567050     1.7328249
N           3.4719891     0.9569093     0.7877253
C           3.5982217    -0.1243450     0.0132803
N           4.7361433    -0.6251029    -0.5026094
C           5.8533959     0.0364492    -0.1950518
H           6.7755565    -0.3580178    -0.6190380
C           0.3257666    -2.0068691    -0.2837169
H          -0.5840792    -2.0670634     0.3141261
H           0.7839095    -3.0020219    -0.3396655
H           0.0706781    -1.6975024    -1.3039644
O           1.0048465    -0.4143589     1.3958454
17
408_C6H7N3O_0-1-8-9 (165,) energy =    -472.3454729
C           1.2464739    -0.9527803     0.3520888
N           2.5049355    -0.9003926    -0.2557508
H           2.7157705    -1.6093516    -0.9471228
C           5.8762257     1.1991202     0.6071519
H           6.7858440     1.7470579     0.8259152
C           4.6477362     1.5503276     1.1626714
H           4.5587986     2.3981135     1.8404101
N           3.5135647     0.8934784     0.9036243
C           3.6297174    -0.1485937     0.0761639
N           4.7532104    -0.5849184    -0.5266713
C           5.8626760     0.1027917    -0.2541534
H           6.7720139    -0.2427573    -0.7436106
C           0.3368552    -1.9918272    -0.2938039
H          -0.6232569    -1.9780694     0.2227285
H           0.7692809    -2.9972158    -0.2215185
H           0.1790028    -1.7703030    -1.3560222
O           0.9032666    -0.2563623     1.2825730
17
408_C6H7N3O_0-1-8-9 (180,) energy =    -472.3456793
C           1.2213498    -0.9180474     0.3154028
N           2.5301447    -0.9748682    -0.1721123
H           2.7417654    -1.6911115    -0.8555000
C           5.8714907     1.2122011     0.5778699
H           6.7731411     1.7845355     0.7647430
C           4.6687822     1.4930182     1.2224188
H           4.5939648     2.3057296     1.9434632
N           3.5452658     0.8022983     1.0086858
C           3.6434124    -0.1930750     0.1237114
N           4.7430679    -0.5639996    -0.5625146
C           5.8443169     0.1481801    -0.3230187
H           6.7350903    -0.1479622    -0.8750565
C           0.3308229    -1.9900498    -0.3033373
H          -0.6705386    -1.8899972     0.1162505
H           0.7132771    -2.9948070    -0.0867500
H           0.2775568    -1.8791055    -1.3930808
O           0.8251548    -0.1169777     1.1339223
