16
412_C5H6N4O_0-1-8-9 (-165,) energy =    -488.3934415
C           1.8139543    -1.6628209    -0.5738422
N           2.5048824    -1.0094758     0.4601492
H           2.2876273    -1.2788371     1.4113321
C           5.8482170     1.2932404     0.3817377
H           6.7417704     1.9071502     0.3783610
C           5.1403313     1.0094718    -0.7846561
H           5.4618267     1.4044418    -1.7473637
N           4.0358677     0.2593131    -0.8053144
C           3.6503176    -0.2284857     0.3777393
N           4.2356821    -0.0151089     1.5726937
C           5.3288420     0.7486276     1.5552121
H           5.8033062     0.9264395     2.5192382
N           0.6392020    -2.2417705    -0.0987974
H           0.0633813    -2.6046240    -0.8477078
H           0.1188262    -1.7402812     0.6107795
O           2.1977100    -1.7748787    -1.7182911
16
412_C5H6N4O_0-1-8-9 (-150,) energy =    -488.3933799
C           1.8479714    -1.6839747    -0.5325983
N           2.4178118    -0.8925618     0.4835457
H           2.2036637    -1.1620381     1.4363655
C           5.8625427     1.2582928     0.3695651
H           6.7825195     1.8317483     0.3530797
C           5.0940059     1.0584646    -0.7763086
H           5.3927909     1.4820008    -1.7341105
N           3.9539394     0.3639431    -0.7778397
C           3.6005955    -0.1636355     0.3986738
N           4.2457812    -0.0339367     1.5723289
C           5.3682832     0.6873714     1.5406911
H           5.8892885     0.8031932     2.4899083
N           0.6549254    -2.2574921    -0.1047561
H           0.1568471    -2.7169101    -0.8563196
H           0.0630642    -1.7075410     0.5058987
O           2.3424473    -1.8957130    -1.6190609
16
412_C5H6N4O_0-1-8-9 (-135,) energy =    -488.3925430
C           1.8801300    -1.6906636    -0.4949515
N           2.3255668    -0.7639022     0.4747581
H           2.1042418    -1.0163623     1.4319797
C           5.8753523     1.2165618     0.3404007
H           6.8226263     1.7434729     0.3136112
C           5.0558266     1.1098386    -0.7829026
H           5.3421906     1.5614220    -1.7315491
N           3.8805522     0.4773490    -0.7682467
C           3.5460262    -0.0881356     0.3962284
N           4.2430933    -0.0545177     1.5438471
C           5.3978782     0.6157860     1.5027630
H           5.9600331     0.6590793     2.4343094
N           0.6757104    -2.2672246    -0.1157779
H           0.2584084    -2.8230111    -0.8509418
H           0.0194851    -1.6888875     0.3940380
O           2.4826440    -1.9893363    -1.5040347
16
412_C5H6N4O_0-1-8-9 (-120,) energy =    -488.3907017
C           1.9144049    -1.7025010    -0.4372880
N           2.2380494    -0.6483896     0.4508885
H           1.9861010    -0.8536650     1.4131104
C           5.8816431     1.1687367     0.3243448
H           6.8532370     1.6492776     0.2932907
C           5.0245494     1.1647901    -0.7758052
H           5.3049123     1.6507549    -1.7090418
N           3.8188129     0.5924271    -0.7526650
C           3.4915336    -0.0169798     0.3910179
N           4.2277701    -0.0904713     1.5091004
C           5.4130412     0.5265431     1.4674935
H           6.0070862     0.4871377     2.3791049
N           0.7085229    -2.2955509    -0.0956908
H           0.3739245    -2.9420968    -0.7981395
H          -0.0080145    -1.7009314     0.3016984
O           2.6143262    -2.0725411    -1.3567755
16
412_C5H6N4O_0-1-8-9 (-105,) energy =    -488.3878949
C           1.9479751    -1.7160116    -0.3757242
N           2.1617272    -0.5474338     0.3959137
H           1.8595763    -0.6771574     1.3579481
C           5.8837659     1.1275436     0.3137908
H           6.8750883     1.5666474     0.2892792
C           5.0030183     1.2346880    -0.7617213
H           5.2839069     1.7674872    -1.6687681
N           3.7733765     0.7134689    -0.7430308
C           3.4445559     0.0475991     0.3669689
N           4.2045269    -0.1389114     1.4531424
C           5.4156748     0.4278248     1.4226991
H           6.0300604     0.2981065     2.3121004
N           0.7408674    -2.3198758    -0.0622438
H           0.4839783    -3.0513716    -0.7121021
H          -0.0236442    -1.7159532     0.2128088
O           2.7343918    -2.1535082    -1.1910898
16
412_C5H6N4O_0-1-8-9 (-90,) energy =    -488.3849941
C           2.0216081    -1.8460658    -0.1781984
N           2.2052600    -0.5918910     0.4478557
H           1.5122768     0.0797991     0.1262194
C           5.9019979     1.1536756     0.2755520
H           6.8787807     1.6234255     0.2359731
C           4.9067484     1.4447936    -0.6535955
H           5.0702210     2.1666148    -1.4520132
N           3.7044662     0.8594958    -0.6214251
C           3.5061825    -0.0196164     0.3670889
N           4.3569959    -0.3305373     1.3472701
C           5.5625300     0.2422741     1.2736911
H           6.2693048    -0.0243046     2.0578130
N           0.6816183    -2.1772148    -0.3001282
H           0.5361470    -3.1411919    -0.5703078
H           0.0535392    -1.8461445     0.4215468
O           2.9324926    -2.5459515    -0.5769836
16
412_C5H6N4O_0-1-8-9 (-75,) energy =    -488.3883835
C           2.0269263    -1.8886853    -0.1149644
N           2.1997425    -0.5519998     0.3220368
H           1.5451253     0.0779184    -0.1347525
C           5.8991634     1.1717990     0.2985228
H           6.8779663     1.6387451     0.2986230
C           4.9023811     1.5492503    -0.5968749
H           5.0663497     2.3394375    -1.3276440
N           3.6984820     0.9667416    -0.6167988
C           3.4984470     0.0048515     0.2930747
N           4.3505617    -0.3957984     1.2410880
C           5.5574147     0.1748313     1.2117246
H           6.2658467    -0.1640539     1.9659520
N           0.6869835    -2.2137018    -0.2491713
H           0.5316703    -3.2027989    -0.3939405
H           0.0350673    -1.7751869     0.3891718
O           2.9388763    -2.6491522    -0.3697612
16
412_C5H6N4O_0-1-8-9 (-60,) energy =    -488.3911338
C           2.0257211    -1.9323141    -0.0633830
N           2.2168914    -0.5514848     0.1824719
H           1.5826041     0.0395107    -0.3464347
C           5.8928424     1.1943548     0.3234623
H           6.8668623     1.6691756     0.3637280
C           4.8938465     1.6346318    -0.5405971
H           5.0515364     2.4829888    -1.2046222
N           3.6961158     1.0452597    -0.6128354
C           3.5030108     0.0097034     0.2170967
N           4.3592277    -0.4628103     1.1290384
C           5.5589668     0.1215563     1.1500567
H           6.2695856    -0.2720028     1.8752777
N           0.6807228    -2.2365344    -0.2072766
H           0.5006604    -3.2318331    -0.2254667
H           0.0188156    -1.7006274     0.3400535
O           2.9194245    -2.7456430    -0.1737719
16
412_C5H6N4O_0-1-8-9 (-45,) energy =    -488.3927877
C           2.0288385    -1.9654159    -0.0164037
N           2.2652369    -0.5749667     0.0451804
H           1.6449095    -0.0075683    -0.5219744
C           5.8976757     1.2253369     0.3536984
H           6.8611302     1.7161130     0.4343207
C           4.8929640     1.7038776    -0.4840621
H           5.0370400     2.5997611    -1.0860205
N           3.7087122     1.0983697    -0.6057961
C           3.5328364     0.0009621     0.1492768
N           4.3976880    -0.5222240     1.0248202
C           5.5821998     0.0886572     1.0974457
H           6.2977563    -0.3422428     1.7961894
N           0.6762493    -2.2345085    -0.1806122
H           0.4592707    -3.2178942    -0.0827813
H           0.0167676    -1.6155831     0.2746240
O           2.8869294    -2.8216489     0.0179299
16
412_C5H6N4O_0-1-8-9 (-30,) energy =    -488.3934376
C           2.0216296    -1.9980957     0.0258865
N           2.3168584    -0.6256209    -0.0795934
H           1.6986533    -0.0723530    -0.6606561
C           5.8857601     1.2592057     0.3781105
H           6.8327311     1.7743255     0.4936057
C           4.8676767     1.7566273    -0.4332066
H           4.9852234     2.6915734    -0.9791000
N           3.7029684     1.1259035    -0.5954239
C           3.5598793    -0.0242750     0.0890056
N           4.4438199    -0.5799997     0.9239351
C           5.6053686     0.0670134     1.0439587
H           6.3336863    -0.3867897     1.7145430
N           0.6636646    -2.2300114    -0.1680336
H           0.4032744    -3.1866047     0.0345064
H           0.0133970    -1.5411321     0.1899058
O           2.8339688    -2.8805017     0.2027076
16
412_C5H6N4O_0-1-8-9 (-15,) energy =    -488.3934119
C           2.0102789    -2.0157055     0.0698441
N           2.3724234    -0.6829506    -0.1852168
H           1.7531618    -0.1312894    -0.7653466
C           5.8735485     1.2890030     0.3990332
H           6.8023598     1.8288878     0.5445615
C           4.8369939     1.7964186    -0.3830400
H           4.9228265     2.7636925    -0.8760735
N           3.6926418     1.1399121    -0.5772287
C           3.5902924    -0.0545572     0.0387762
N           4.5007161    -0.6332360     0.8275739
C           5.6368635     0.0493964     0.9899789
H           6.3835662    -0.4204050     1.6286397
N           0.6526302    -2.2171084    -0.1704703
H           0.3449643    -3.1333382     0.1294909
H           0.0132277    -1.4709297     0.0748482
O           2.7687429    -2.9036410     0.3952738
16
412_C5H6N4O_0-1-8-9 (0,) energy =    -488.3929835
C           1.9952550    -2.0174913     0.1258487
N           2.4223139    -0.7404011    -0.2658974
H           1.8022213    -0.1859290    -0.8418945
C           5.8591370     1.3119671     0.4145455
H           6.7706252     1.8743215     0.5827081
C           4.7986523     1.8263070    -0.3304164
H           4.8482968     2.8204935    -0.7722814
N           3.6728909     1.1457346    -0.5465681
C           3.6167735    -0.0852264     0.0016877
N           4.5608118    -0.6824432     0.7343301
C           5.6722528     0.0315532     0.9311160
H           6.4436031    -0.4509909     1.5297412
N           0.6490064    -2.2123920    -0.1828065
H           0.2933486    -3.0744792     0.2102859
H           0.0169729    -1.4278514    -0.0779071
O           2.6963222    -2.8799568     0.6100646
16
412_C5H6N4O_0-1-8-9 (15,) energy =    -488.3934120
C           1.9146696    -1.8240980     0.4368677
N           2.4106317    -0.6271993    -0.1047994
H           1.7493174    -0.0075954    -0.5555147
C           5.9804181     1.2454679     0.3821245
H           6.9263725     1.7606250     0.5051339
C           4.8700390     1.8637182    -0.1908295
H           4.9151825     2.8935313    -0.5422592
N           3.6980819     1.2452534    -0.3404136
C           3.6489015    -0.0302351     0.0922054
N           4.6467443    -0.7346977     0.6344017
C           5.8010789    -0.0787883     0.7772707
H           6.6160909    -0.6475671     1.2226937
N           0.6732017    -2.1413545    -0.1112337
H           0.3598282    -3.0627452     0.1663296
H           0.5243556    -1.9385637    -1.0923873
O           2.4453244    -2.4780631     1.3088080
16
412_C5H6N4O_0-1-8-9 (30,) energy =    -488.3934377
C           1.8995126    -1.7773093     0.4581321
N           2.4383539    -0.6677781    -0.2204992
H           1.7768354    -0.0463216    -0.6700524
C           5.9651287     1.2449749     0.4137907
H           6.9015500     1.7670346     0.5750653
C           4.8474361     1.8805249    -0.1237942
H           4.8769917     2.9308722    -0.4098680
N           3.6848471     1.2538599    -0.3144497
C           3.6570640    -0.0464701     0.0322407
N           4.6691139    -0.7722372     0.5183538
C           5.8093814    -0.1068387     0.7165119
H           6.6343673    -0.6904152     1.1225969
N           0.6776411    -2.1504992    -0.0925384
H           0.3343008    -3.0233245     0.2871885
H           0.5689809    -2.0663410    -1.0958517
O           2.3887776    -2.3130120     1.4294439
16
412_C5H6N4O_0-1-8-9 (45,) energy =    -488.3927876
C           1.8901179    -1.7251580     0.4604484
N           2.4848858    -0.7289109    -0.3437332
H           1.8330679    -0.1069442    -0.8093192
C           5.9509078     1.2406485     0.4548104
H           6.8730150     1.7733853     0.6585837
C           4.8232374     1.8833272    -0.0506718
H           4.8295800     2.9500461    -0.2692609
N           3.6759941     1.2419678    -0.2884999
C           3.6784320    -0.0762379    -0.0288334
N           4.7079629    -0.8105632     0.4060015
C           5.8284464    -0.1327403     0.6637996
H           6.6661119    -0.7216209     1.0345591
N           0.6777253    -2.1402340    -0.0756280
H           0.3007244    -2.9520095     0.3962474
H           0.5994256    -2.1730277    -1.0846677
O           2.3402526    -2.1376435     1.5081644
16
412_C5H6N4O_0-1-8-9 (60,) energy =    -488.3911338
C           1.8690679    -1.6706017     0.4597222
N           2.5323525    -0.8149757    -0.4522192
H           1.8986985    -0.2056857    -0.9607341
C           5.9215663     1.2374786     0.4865096
H           6.8246047     1.7879638     0.7258414
C           4.7727407     1.8726298     0.0225948
H           4.7417867     2.9506623    -0.1270446
N           3.6477265     1.2069408    -0.2573000
C           3.6962300    -0.1220201    -0.0842020
N           4.7537871    -0.8473735     0.2945461
C           5.8494817    -0.1506159     0.6032249
H           6.7085940    -0.7325527     0.9335095
N           0.6664881    -2.1247763    -0.0597034
H           0.2474011    -2.8578717     0.4973514
H           0.6165629    -2.2771980    -1.0592847
O           2.2742627    -1.9461857     1.5697971
16
412_C5H6N4O_0-1-8-9 (75,) energy =    -488.3883835
C           1.8521141    -1.6052906     0.4562583
N           2.5993866    -0.9124624    -0.5281907
H           2.0021537    -0.3288463    -1.1084334
C           5.9059582     1.2397473     0.5168675
H           6.7873836     1.8126635     0.7832272
C           4.7237865     1.8521557     0.1104084
H           4.6433978     2.9352331     0.0343286
N           3.6260077     1.1549553    -0.2024385
C           3.7351563    -0.1770987    -0.1197463
N           4.8297940    -0.8769378     0.1922506
C           5.8982579    -0.1545886     0.5380417
H           6.7872047    -0.7179175     0.8173522
N           0.6533769    -2.0792800    -0.0511446
H           0.1821457    -2.7176206     0.5764349
H           0.6371891    -2.3582750    -1.0241151
O           2.2025178    -1.7430489     1.6108681
16
412_C5H6N4O_0-1-8-9 (90,) energy =    -488.3849941
C           1.8231318    -1.5345522     0.4551699
N           2.6653006    -1.0228629    -0.5585188
H           2.1276467    -0.5093458    -1.2528332
C           5.8900040     1.2430037     0.5413333
H           6.7477938     1.8437552     0.8235210
C           4.6661611     1.8174829     0.2085134
H           4.5279347     2.8973502     0.2091973
N           3.5988803     1.0840641    -0.1262978
C           3.7771257    -0.2416352    -0.1343089
N           4.9136128    -0.9000653     0.1027074
C           5.9561686    -0.1470731     0.4672900
H           6.8806564    -0.6798305     0.6839338
N           0.6297808    -2.0210616    -0.0540607
H           0.1007040    -2.5558274     0.6223369
H           0.6508658    -2.4251417    -0.9820585
O           2.1061922    -1.5341437     1.6377330
16
412_C5H6N4O_0-1-8-9 (105,) energy =    -488.3878951
C           1.6865197    -1.3230567     0.4206568
N           2.6123634    -0.9630696    -0.5893707
H           2.8962414    -1.7710862    -1.1373323
C           5.8942895     1.1939115     0.5241044
H           6.7648424     1.7655466     0.8265722
C           4.6255701     1.7672794     0.4500227
H           4.4660047     2.8160830     0.6951081
N           3.5451558     1.0828395     0.0650429
C           3.7478817    -0.2067669    -0.2168745
N           4.9079651    -0.8729948    -0.1659044
C           5.9798205    -0.1534306     0.1838094
H           6.9298481    -0.6847610     0.2058960
N           0.7701345    -2.2566872    -0.0362581
H           0.0001196    -2.4011037     0.6037551
H           0.5012597    -2.2059915    -1.0109313
O           1.7062236    -0.8908834     1.5553583
16
412_C5H6N4O_0-1-8-9 (120,) energy =    -488.3907010
C           1.6290007    -1.2806507     0.4214573
N           2.6749892    -1.0513725    -0.5047981
H           2.9797418    -1.8996788    -0.9728769
C           5.9099012     1.2147522     0.4906463
H           6.7725906     1.8151543     0.7573139
C           4.6154980     1.7332212     0.5153203
H           4.4273823     2.7664870     0.8029040
N           3.5419536     1.0160910     0.1758731
C           3.7800269    -0.2559718    -0.1580951
N           4.9705481    -0.8704628    -0.2109610
C           6.0300935    -0.1152003     0.0958942
H           7.0015862    -0.6031714     0.0357790
N           0.7335428    -2.2261139    -0.0553549
H          -0.1038983    -2.2947917     0.5081225
H           0.5689171    -2.2500151    -1.0540326
O           1.5404524    -0.7526664     1.5102866
16
412_C5H6N4O_0-1-8-9 (135,) energy =    -488.3925430
C           1.5736619    -1.2499452     0.4207484
N           2.7269009    -1.1318642    -0.3877916
H           3.0391318    -2.0015735    -0.8062477
C           5.9239547     1.2371864     0.4535343
H           6.7819167     1.8621977     0.6747709
C           4.6159769     1.7048413     0.5772709
H           4.4128455     2.7252264     0.8988477
N           3.5465948     0.9566634     0.2976539
C           3.8060704    -0.2994772    -0.0797797
N           5.0137927    -0.8653342    -0.2387615
C           6.0623812    -0.0780689     0.0165696
H           7.0442214    -0.5270472    -0.1251272
N           0.7069345    -2.2085541    -0.0858831
H          -0.1889689    -2.2146749     0.3840384
H           0.6512096    -2.3046238    -1.0922048
O           1.3761536    -0.6383263     1.4490461
16
412_C5H6N4O_0-1-8-9 (150,) energy =    -488.3933799
C           1.5290021    -1.2282057     0.4153782
N           2.7682417    -1.2051978    -0.2534696
H           3.0788636    -2.0821959    -0.6543823
C           5.9421735     1.2439208     0.4047825
H           6.7976019     1.8880386     0.5745905
C           4.6352958     1.6738416     0.6302725
H           4.4288281     2.6836759     0.9819052
N           3.5669379     0.9015878     0.4196806
C           3.8291008    -0.3405850     0.0005710
N           5.0378427    -0.8691241    -0.2642720
C           6.0808107    -0.0603429    -0.0658086
H           7.0607479    -0.4803230    -0.2876520
N           0.6998886    -2.2142262    -0.1096591
H          -0.2416391    -2.1617694     0.2574493
H           0.7441947    -2.3813515    -1.1075326
O           1.2271898    -0.5308686     1.3600321
16
412_C5H6N4O_0-1-8-9 (165,) energy =    -488.3934415
C           1.4847417    -1.1943718     0.4011497
N           2.7902300    -1.2501501    -0.1145721
H           3.0975334    -2.1267599    -0.5165967
C           5.9476084     1.2568425     0.3676579
H           6.8011820     1.9140928     0.4891859
C           4.6529336     1.6564856     0.6935470
H           4.4534287     2.6551587     1.0795722
N           3.5859397     0.8666995     0.5494350
C           3.8378188    -0.3598765     0.0822306
N           5.0353724    -0.8586431    -0.2827276
C           6.0753537    -0.0367442    -0.1360372
H           7.0447275    -0.4345780    -0.4328896
N           0.6954545    -2.2110541    -0.1320251
H          -0.2783325    -2.1118345     0.1248666
H           0.8387364    -2.4602446    -1.1031873
O           1.0911577    -0.4159682     1.2430334
16
412_C5H6N4O_0-1-8-9 (180,) energy =    -488.3930046
C           1.7779858    -1.6245897    -0.5989931
N           2.5790102    -1.1114322     0.4315928
H           2.3583685    -1.3753326     1.3831267
C           5.8304957     1.3203826     0.3990901
H           6.6998734     1.9679662     0.4104837
C           5.1925683     0.9571001    -0.7851246
H           5.5479770     1.3191902    -1.7488537
N           4.1224509     0.1589763    -0.8251784
C           3.6904655    -0.2826480     0.3594001
N           4.2081521     0.0066155     1.5707089
C           5.2762680     0.8043919     1.5698544
H           5.6989211     1.0382208     2.5459798
N           0.6378385    -2.2431671    -0.0863606
H          -0.0118806    -2.5018377    -0.8179084
H           0.1928566    -1.8273308     0.7229857
O           2.0475063    -1.6042552    -1.7808293
