16
412_C5H6N4O_12-0-1-8 (-165,) energy =    -488.3931765
C           1.8870663    -1.7805376     0.4896842
N           2.3750527    -0.5778531    -0.0519701
H           1.7167947     0.0300605    -0.5222016
C           5.9912773     1.2197559     0.3584104
H           6.9509623     1.7133112     0.4619723
C           4.8777933     1.8698003    -0.1714250
H           4.9346473     2.9037704    -0.5087195
N           3.6885559     1.2786268    -0.2951618
C           3.6256489    -0.0021598     0.1182844
N           4.6261435    -0.7382979     0.6132572
C           5.7968943    -0.1082887     0.7341547
H           6.6136325    -0.7018650     1.1425171
N           0.7301763    -2.1879266    -0.1662164
H           0.4179015    -3.1034367     0.1305199
H           0.6730314    -2.0328777    -1.1649529
O           2.3629248    -2.3673896     1.4377257
16
412_C5H6N4O_12-0-1-8 (-150,) energy =    -488.3919439
C           1.8546770    -1.7597161     0.5252946
N           2.3038273    -0.4951251     0.0957170
H           1.6573815     0.0929537    -0.4142392
C           5.9941113     1.1823856     0.2904651
H           6.9734437     1.6447076     0.3394155
C           4.8815964     1.8549578    -0.2131046
H           4.9598884     2.8760484    -0.5838014
N           3.6691491     1.3025357    -0.2725173
C           3.5799272     0.0378852     0.1844580
N           4.5746534    -0.7170451     0.6637772
C           5.7708199    -0.1264892     0.7141516
H           6.5834266    -0.7364422     1.1063543
N           0.8051364    -2.2136024    -0.2638837
H           0.5168017    -3.1553420    -0.0318350
H           0.8365773    -2.0163954    -1.2559541
O           2.2796608    -2.3579662     1.4896874
16
412_C5H6N4O_12-0-1-8 (-135,) energy =    -488.3899693
C           1.8187121    -1.7281039     0.5823143
N           2.2351083    -0.4192090     0.2377345
H           1.5972768     0.1504498    -0.3038821
C           5.9788616     1.1472411     0.2438900
H           6.9726325     1.5802914     0.2457763
C           4.8681009     1.8448696    -0.2286829
H           4.9624903     2.8563229    -0.6215023
N           3.6379919     1.3293857    -0.2323719
C           3.5285335     0.0768440     0.2523814
N           4.5187546    -0.7000594     0.7075880
C           5.7335698    -0.1470313     0.6993894
H           6.5424479    -0.7752380     1.0699862
N           0.9164204    -2.2330080    -0.3387963
H           0.6471239    -3.1919921    -0.1624988
H           1.0294815    -1.9881644    -1.3132877
O           2.1630895    -2.3163167     1.5835109
16
412_C5H6N4O_12-0-1-8 (-120,) energy =    -488.3875014
C           1.7778771    -1.6898133     0.6403656
N           2.1669490    -0.3472514     0.3555494
H           1.5293910     0.2110951    -0.1991202
C           5.9523602     1.1068102     0.2045833
H           6.9582131     1.5092987     0.1690066
C           4.8466371     1.8385352    -0.2267727
H           4.9579294     2.8466163    -0.6239499
N           3.6014981     1.3619791    -0.1854604
C           3.4713033     0.1135672     0.3042523
N           4.4548501    -0.6953573     0.7206017
C           5.6850478    -0.1804992     0.6675818
H           6.4877001    -0.8342677     1.0061804
N           1.0650179    -2.2503342    -0.3998214
H           0.8230324    -3.2238388    -0.2697448
H           1.2738275    -1.9692091    -1.3477503
O           2.0028325    -2.2505684     1.6888482
16
412_C5H6N4O_12-0-1-8 (-105,) energy =    -488.3889715
C           1.5885691    -1.4259291     0.4455134
N           2.0304940    -0.2222041    -0.2498818
H           1.3927592     0.5482331    -0.0655814
C           5.8711121     1.0251048     0.2124107
H           6.8957183     1.3599171     0.3263836
C           4.8125609     1.9200129     0.0607755
H           4.9826336     2.9957050     0.0494115
N           3.5436105     1.5280619    -0.0700065
C           3.3410944     0.1995730    -0.0575635
N           4.2750884    -0.7580791     0.0721715
C           5.5299838    -0.3262440     0.2139489
H           6.2898799    -1.0978594     0.3299124
N           1.4968896    -2.4905440    -0.3964028
H           1.3686030    -3.3979732     0.0308908
H           1.9996597    -2.4533834    -1.2715204
O           1.2333271    -1.4188979     1.6051846
16
412_C5H6N4O_12-0-1-8 (-90,) energy =    -488.3922951
C           1.4882094    -1.3774499     0.4184342
N           1.9842115    -0.1890423    -0.2479546
H           1.3761662     0.5928375    -0.0156918
C           5.8562780     0.9793463     0.1852390
H           6.8875236     1.2953598     0.2922657
C           4.8034588     1.8927679     0.1378348
H           4.9848462     2.9644652     0.2048453
N           3.5270401     1.5232203     0.0169345
C           3.3087203     0.2002903    -0.0693890
N           4.2371998    -0.7721834    -0.0511350
C           5.5011468    -0.3642725     0.0868538
H           6.2559065    -1.1489604     0.1128064
N           1.6465467    -2.5067932    -0.3308320
H           1.5045403    -3.3769104     0.1662048
H           2.3948065    -2.5016653    -1.0122711
O           0.8581814    -1.3099934     1.4543334
16
412_C5H6N4O_12-0-1-8 (-75,) energy =    -488.3970629
C           1.4057488    -1.3511592     0.3825578
N           1.9507020    -0.1619544    -0.2207423
H           1.3575864     0.6258038     0.0279268
C           5.8474477     0.9459683     0.1553548
H           6.8841855     1.2478903     0.2485190
C           4.8011125     1.8678641     0.1958559
H           4.9936684     2.9323123     0.3208187
N           3.5189404     1.5149243     0.0933117
C           3.2845186     0.2012561    -0.0656897
N           4.2070526    -0.7750405    -0.1411963
C           5.4788513    -0.3857103    -0.0168803
H           6.2268944    -1.1753342    -0.0668142
N           1.7785444    -2.5029579    -0.2526783
H           1.5717386    -3.3485972     0.2640189
H           2.6816371    -2.4790593    -0.7150150
O           0.5615213    -1.2733084     1.2541845
16
412_C5H6N4O_12-0-1-8 (-60,) energy =    -488.4016744
C           1.3489580    -1.3493388     0.3334010
N           1.9381994    -0.1399873    -0.1581913
H           1.3483382     0.6470160     0.0958031
C           5.8523546     0.9304701     0.1190545
H           6.8922877     1.2276869     0.1872199
C           4.8117753     1.8564082     0.2096463
H           5.0118179     2.9174687     0.3508111
N           3.5265862     1.5114148     0.1369043
C           3.2782987     0.2014304    -0.0421278
N           4.1957875    -0.7752943    -0.1630242
C           5.4735730    -0.3952111    -0.0688710
H           6.2149681    -1.1875229    -0.1570984
N           1.8791121    -2.4885966    -0.2031657
H           1.6016053    -3.3382981     0.2704550
H           2.8463991    -2.4301850    -0.5101578
O           0.3587620    -1.2986813     1.0402365
16
412_C5H6N4O_12-0-1-8 (-45,) energy =    -488.4050213
C           1.3076092    -1.3569274     0.2768777
N           1.9378896    -0.1273350    -0.0735180
H           1.3417708     0.6551516     0.1740054
C           5.8620682     0.9256821     0.0874973
H           6.9042739     1.2202694     0.1253829
C           4.8240074     1.8519362     0.2095024
H           5.0307454     2.9122007     0.3471668
N           3.5378193     1.5092633     0.1711904
C           3.2805507     0.1983776    -0.0022340
N           4.1949387    -0.7780332    -0.1449023
C           5.4756971    -0.3983162    -0.0888732
H           6.2123917    -1.1923277    -0.1970820
N           1.9423419    -2.4777953    -0.1707526
H           1.5950434    -3.3423286     0.2205750
H           2.9374338    -2.4012724    -0.3645314
O           0.2183906    -1.3343999     0.8244644
16
412_C5H6N4O_12-0-1-8 (-30,) energy =    -488.4070410
C           1.2806624    -1.3631622     0.2446642
N           1.9425088    -0.1236577     0.0409017
H           1.3407974     0.6605288     0.2631473
C           5.8671679     0.9284704     0.0475749
H           6.9091676     1.2259676     0.0463463
C           4.8316333     1.8552025     0.1914556
H           5.0401892     2.9176457     0.3084240
N           3.5462967     1.5107614     0.1988613
C           3.2843448     0.1960998     0.0522147
N           4.1965625    -0.7807749    -0.1001701
C           5.4780286    -0.3982451    -0.0945989
H           6.2117448    -1.1934633    -0.2131987
N           1.9785622    -2.4705656    -0.1291955
H           1.5753060    -3.3492787     0.1613454
H           2.9853006    -2.3906150    -0.2432955
O           0.1287320    -1.3582228     0.6479805
16
412_C5H6N4O_12-0-1-8 (-15,) energy =    -488.4080013
C           1.2672866    -1.3609884     0.2169898
N           1.9563178    -0.1242719     0.1594002
H           1.3470989     0.6638500     0.3395767
C           5.8757553     0.9310707     0.0163962
H           6.9166318     1.2299799    -0.0223271
C           4.8423813     1.8576813     0.1781165
H           5.0525578     2.9221031     0.2722021
N           3.5588928     1.5115627     0.2283106
C           3.2950452     0.1934852     0.1113252
N           4.2054031    -0.7842046    -0.0480626
C           5.4852609    -0.3981840    -0.0913652
H           6.2167861    -1.1940078    -0.2189062
N           2.0004475    -2.4637228    -0.0868354
H           1.5497429    -3.3505502     0.0797721
H           3.0121756    -2.3913156    -0.1360353
O           0.0743058    -1.3573058     0.4787109
16
412_C5H6N4O_12-0-1-8 (0,) energy =    -488.4082207
C           1.4933938    -1.6571187    -0.5137175
N           2.3955699    -0.6546467    -0.9475525
H           2.2137995    -0.3552416    -1.8970456
C           5.5441518     1.2770850     0.7399483
H           6.3864388     1.8015105     1.1756177
C           5.1079558     1.5240384    -0.5644976
H           5.6071071     2.2608051    -1.1922341
N           4.0768722     0.8910439    -1.1171685
C           3.4563370    -0.0224267    -0.3412882
N           3.7876554    -0.3413868     0.9232649
C           4.8296150     0.3157912     1.4442473
H           5.0923484     0.0529588     2.4672822
N           1.6764890    -2.1146814     0.7485839
H           1.0379614    -2.8235080     1.0728186
H           2.4171318    -1.7392451     1.3316069
O           0.6268080    -2.0393848    -1.2855903
16
412_C5H6N4O_12-0-1-8 (15,) energy =    -488.4080013
C           1.4799290    -1.7078289    -0.5153644
N           2.3066314    -0.6318840    -0.9233520
H           2.1511290    -0.3726407    -1.8894572
C           5.5252171     1.2407556     0.6984112
H           6.3844981     1.7514274     1.1168850
C           5.0689868     1.4944389    -0.5977836
H           5.5686329     2.2213819    -1.2364758
N           4.0168124     0.8785815    -1.1300514
C           3.3950585    -0.0222317    -0.3410097
N           3.7442441    -0.3456218     0.9173709
C           4.8082267     0.2921429     1.4174909
H           5.0864162     0.0248900     2.4352914
N           1.5756514    -2.0676586     0.7912410
H           1.0888344    -2.9119200     1.0512168
H           2.3461414    -1.7139309     1.3502394
O           0.7130519    -2.2005959    -1.3282572
16
412_C5H6N4O_12-0-1-8 (30,) energy =    -488.4070410
C           1.5056835    -1.7243729    -0.5189027
N           2.2275380    -0.5554103    -0.8772097
H           2.1011342    -0.3251830    -1.8556859
C           5.5359609     1.2156827     0.6808454
H           6.4174427     1.7004486     1.0836622
C           5.0677680     1.4808770    -0.6084696
H           5.5788888     2.1906228    -1.2572989
N           3.9898394     0.8944773    -1.1232414
C           3.3532800     0.0164880    -0.3217513
N           3.7081710    -0.3105555     0.9339323
C           4.8007643     0.2923418     1.4148377
H           5.0859806     0.0200757     2.4293819
N           1.5324363    -2.0497265     0.8026899
H           1.1561073    -2.9590996     1.0275973
H           2.2635080    -1.6484565     1.3835941
O           0.8527664    -2.3005781    -1.3740745
16
412_C5H6N4O_12-0-1-8 (45,) energy =    -488.4050213
C           1.5467621    -1.7345417    -0.5223450
N           2.1567477    -0.4821828    -0.8247398
H           2.0488379    -0.2686421    -1.8104714
C           5.5544049     1.1855294     0.6613993
H           6.4579195     1.6420220     1.0482916
C           5.0714719     1.4644397    -0.6189861
H           5.5925955     2.1582694    -1.2769249
N           3.9668859     0.9097972    -1.1143990
C           3.3194354     0.0536846    -0.3004190
N           3.6817480    -0.2789969     0.9517352
C           4.8022638     0.2878157     1.4109022
H           5.0961129     0.0101857     2.4215735
N           1.4785360    -2.0364364     0.8057394
H           1.2074626    -2.9888843     1.0070689
H           2.1535842    -1.5870267     1.4188909
O           1.0303908    -2.3789265    -1.4194986
16
412_C5H6N4O_12-0-1-8 (60,) energy =    -488.4016744
C           1.6133840    -1.7562833    -0.5295589
N           2.1045813    -0.4338349    -0.7770614
H           2.0064505    -0.2198681    -1.7651975
C           5.5664703     1.1649891     0.6380274
H           6.4864697     1.6023004     1.0078996
C           5.0633212     1.4641471    -0.6291424
H           5.5815233     2.1543721    -1.2931075
N           3.9389403     0.9313563    -1.1065575
C           3.2953917     0.0820592    -0.2854013
N           3.6726245    -0.2646709     0.9587313
C           4.8130325     0.2759288     1.3983726
H           5.1225263    -0.0127179     2.4014205
N           1.4081667    -2.0389951     0.7913631
H           1.2424904    -3.0179246     0.9851862
H           1.9913986    -1.5333162     1.4527478
O           1.2730401    -2.4619490    -1.4616923
16
412_C5H6N4O_12-0-1-8 (75,) energy =    -488.3970629
C           1.6851609    -1.7754394    -0.5181058
N           2.0722162    -0.4035859    -0.7262490
H           1.9686298    -0.1863842    -1.7143149
C           5.5878479     1.1499378     0.6080331
H           6.5211086     1.5728229     0.9613813
C           5.0501557     1.4784987    -0.6366745
H           5.5540721     2.1799934    -1.2997864
N           3.9087258     0.9610991    -1.0932630
C           3.2865021     0.0994771    -0.2708173
N           3.6940449    -0.2761891     0.9550325
C           4.8497753     0.2488808     1.3710771
H           5.1872903    -0.0619082     2.3585286
N           1.2981104    -2.0424682     0.7656517
H           1.2129070    -3.0286629     0.9778089
H           1.7327127    -1.4732311     1.4846769
O           1.5600305    -2.5342123    -1.4599791
16
412_C5H6N4O_12-0-1-8 (90,) energy =    -488.3922951
C           1.7624437    -1.7956326    -0.4692314
N           2.0750256    -0.3949535    -0.6760964
H           1.9489206    -0.1747488    -1.6612907
C           5.6208105     1.1552136     0.5769210
H           6.5616120     1.5770254     0.9112167
C           5.0250013     1.5353288    -0.6253842
H           5.4887234     2.2778064    -1.2731617
N           3.8729797     1.0203382    -1.0590398
C           3.3027789     0.1077200    -0.2545165
N           3.7701692    -0.3267594     0.9290740
C           4.9326815     0.1998482     1.3218136
H           5.3206144    -0.1568015     2.2749035
N           1.1501734    -2.0278442     0.7278867
H           1.0970369    -3.0003561     1.0030455
H           1.3336485    -1.3655413     1.4708340
O           1.8946444    -2.6147872    -1.3558439
16
412_C5H6N4O_12-0-1-8 (105,) energy =    -488.3889715
C           1.8425744    -1.8204382    -0.3909997
N           2.1007576    -0.4041437    -0.6261089
H           1.9209589    -0.1674979    -1.5986911
C           5.6601521     1.1724534     0.5421730
H           6.6048601     1.6007764     0.8567729
C           4.9946427     1.6084130    -0.6029998
H           5.4053248     2.4033636    -1.2239355
N           3.8366924     1.0866236    -1.0126967
C           3.3343825     0.1079341    -0.2407503
N           3.8745225    -0.3898771     0.8847301
C           5.0386192     0.1482560     1.2543747
H           5.4861102    -0.2585804     2.1601981
N           1.0011883    -2.0125514     0.6605681
H           0.9083123    -2.9601876     1.0008978
H           0.8918349    -1.2634958     1.3291091
O           2.2421443    -2.6910406    -1.1349613
16
412_C5H6N4O_12-0-1-8 (120,) energy =    -488.3875014
C           2.0604698    -2.0922178    -0.2150025
N           2.5466004    -0.8647558    -0.7553813
H           1.8799577    -0.2780726    -1.2425133
C           5.7489811     1.2634489     0.5422855
H           6.6068588     1.8367567     0.8745465
C           4.8410619     1.7621859    -0.3910099
H           4.9607092     2.7573241    -0.8173213
N           3.7834961     1.0688185    -0.8153367
C           3.6401282    -0.1601542    -0.2820342
N           4.4247982    -0.7353922     0.6390563
C           5.4741113    -0.0114608     1.0341779
H           6.1156172    -0.4758031     1.7819271
N           0.7583648    -1.9791202     0.2277045
H           0.3916901    -2.8072146     0.6782563
H           0.4397873    -1.0952435     0.5998165
O           2.6972988    -3.1210438    -0.1949423
16
412_C5H6N4O_12-0-1-8 (135,) energy =    -488.3899693
C           2.0482034    -2.0695957    -0.1379283
N           2.5117085    -0.8185745    -0.6128192
H           1.8557313    -0.2329357    -1.1142344
C           5.8031437     1.2721533     0.5120113
H           6.6815383     1.8389229     0.7989080
C           4.8578816     1.7735427    -0.3817855
H           4.9673981     2.7637072    -0.8220556
N           3.7751808     1.0872054    -0.7500390
C           3.6442026    -0.1358642    -0.1997558
N           4.4659349    -0.7131229     0.6850423
C           5.5398201     0.0031115     1.0248359
H           6.2119821    -0.4631507     1.7439126
N           0.6845769    -2.0483885     0.1014749
H           0.3276796    -2.9044568     0.5051816
H           0.2663213    -1.1974967     0.4526969
O           2.7422440    -3.0535067    -0.0066848
16
412_C5H6N4O_12-0-1-8 (150,) energy =    -488.3919440
C           2.0337655    -2.0432083    -0.0700109
N           2.4610798    -0.7572343    -0.4562274
H           1.8218612    -0.1821363    -0.9895723
C           5.8510377     1.2696529     0.4764237
H           6.7536101     1.8212671     0.7137353
C           4.8798836     1.7741059    -0.3873010
H           4.9926847     2.7519169    -0.8534917
N           3.7684204     1.1042482    -0.6949662
C           3.6333746    -0.1032890    -0.1120813
N           4.4781988    -0.6804517     0.7494815
C           5.5819197     0.0175776     1.0263335
H           6.2742309    -0.4496323     1.7253406
N           0.6474636    -2.1140179    -0.0111407
H           0.3133028    -3.0006539     0.3439235
H           0.1445042    -1.3067258     0.3343953
O           2.7655264    -2.9880418     0.1309387
16
412_C5H6N4O_12-0-1-8 (165,) energy =    -488.3931765
C           2.0163293    -1.9991909    -0.0089258
N           2.3974675    -0.6730581    -0.2807963
H           1.7805395    -0.1112895    -0.8533610
C           5.8923574     1.2638628     0.4329824
H           6.8210545     1.7932804     0.6133559
C           4.9020586     1.7721303    -0.4061304
H           5.0247316     2.7300630    -0.9095394
N           3.7591953     1.1275843    -0.6458339
C           3.6103443    -0.0540528    -0.0158681
N           4.4706537    -0.6286093     0.8313559
C           5.6081196     0.0396911     1.0357679
H           6.3148416    -0.4270292     1.7205329
N           0.6369258    -2.1504680    -0.1089062
H           0.3261277    -3.0673893     0.1853682
H           0.0539779    -1.3905044     0.2191093
O           2.7765079    -2.9139515     0.2250140
16
412_C5H6N4O_12-0-1-8 (180,) energy =    -488.3934595
C           1.9993212    -1.9636512     0.0467216
N           2.3387863    -0.6081300    -0.1113312
H           1.7408898    -0.0541891    -0.7123499
C           5.9175755     1.2494514     0.3782901
H           6.8671383     1.7582556     0.5001792
C           4.9029948     1.7608340    -0.4291019
H           5.0267197     2.7002621    -0.9658929
N           3.7344726     1.1396872    -0.5973923
C           3.5840101    -0.0175399     0.0749175
N           4.4662971    -0.5898165     0.8997449
C           5.6305942     0.0509144     1.0292435
H           6.3565022    -0.4155496     1.6937552
N           0.6505123    -2.1737095    -0.2301339
H           0.3527307    -3.1099112     0.0128194
H          -0.0044775    -1.4522179     0.0464030
O           2.7706963    -2.8562563     0.3254801
