20
416_C8H9NO2_10-9-15-16 (-165,) energy =    -515.4751260
O           2.0999468    -0.3560123     0.5230968
C           1.9564380    -1.7631012     0.3795927
H           0.8837621    -1.9446944     0.2933646
H           2.3467213    -2.2972567     1.2545544
H           2.4599659    -2.1249748    -0.5249341
C           5.8981265     1.3503048     0.8757834
H           6.8776107     1.8102053     0.9658522
C           4.7509744     2.1383179     0.8658547
H           4.8096717     3.2193348     0.9331383
C           3.4691177     1.5847266     0.7617038
C           3.3599513     0.1795966     0.6410762
C           4.5107806    -0.6177626     0.6417591
H           4.4331243    -1.6942561     0.5480283
C           5.7714499    -0.0323298     0.7623399
H           6.6525181    -0.6686627     0.7635522
C           2.3353779     2.5862952     0.7399177
O           2.5613134     3.7825370     0.5789212
N           1.0709012     2.1173638     0.9427663
H           0.3226830     2.7862301     0.8276681
H           0.8755153     1.1282179     0.8968427
20
416_C8H9NO2_10-9-15-16 (-150,) energy =    -515.4739266
O           2.1066734    -0.3552272     0.5145685
C           1.9641630    -1.7578607     0.3329432
H           0.8931241    -1.9356087     0.2216139
H           2.3374167    -2.3159915     1.2007063
H           2.4845451    -2.0971172    -0.5708261
C           5.8976659     1.3520284     0.9196479
H           6.8748195     1.8140176     1.0231176
C           4.7490512     2.1382792     0.8851214
H           4.8095207     3.2203345     0.9355778
C           3.4724296     1.5764282     0.7712724
C           3.3684108     0.1731338     0.6449650
C           4.5201655    -0.6222013     0.6619726
H           4.4480728    -1.6988839     0.5642843
C           5.7763057    -0.0312153     0.8047328
H           6.6597048    -0.6640438     0.8204130
C           2.3276901     2.5582381     0.6769970
O           2.5117715     3.6966938     0.2596752
N           1.1037600     2.1337691     1.1148762
H           0.3287471     2.7512102     0.9132097
H           0.9226772     1.1426340     1.1905674
20
416_C8H9NO2_10-9-15-16 (-135,) energy =    -515.4717340
O           2.1053086    -0.3459379     0.4862396
C           1.9593546    -1.7439676     0.2771987
H           0.8891706    -1.9153148     0.1484189
H           2.3188146    -2.3205844     1.1390474
H           2.4905799    -2.0694038    -0.6255311
C           5.8900403     1.3556020     0.9505667
H           6.8645351     1.8193379     1.0699930
C           4.7407266     2.1410923     0.8914241
H           4.8045756     3.2237222     0.9338347
C           3.4703313     1.5714427     0.7623495
C           3.3700170     0.1705775     0.6299910
C           4.5218766    -0.6233822     0.6662406
H           4.4535002    -1.7000368     0.5642438
C           5.7735993    -0.0279572     0.8328694
H           6.6586445    -0.6578575     0.8639070
C           2.3116813     2.5254706     0.5955919
O           2.4311809     3.5537205    -0.0584107
N           1.1473516     2.1914080     1.2372667
H           0.3375205     2.7389098     0.9744963
H           0.9895344     1.2190283     1.4652450
20
416_C8H9NO2_10-9-15-16 (-120,) energy =    -515.4688438
O           2.1048140    -0.3483708     0.4385702
C           1.9595023    -1.7431590     0.2131305
H           0.8915919    -1.9107958     0.0621530
H           2.3007383    -2.3301475     1.0758329
H           2.5074502    -2.0626080    -0.6820761
C           5.8732448     1.3549554     0.9870239
H           6.8428347     1.8227158     1.1286475
C           4.7221788     2.1374105     0.8986760
H           4.7867433     3.2204406     0.9437209
C           3.4612039     1.5579210     0.7408615
C           3.3686002     0.1585821     0.6071437
C           4.5211429    -0.6320762     0.6726987
H           4.4598227    -1.7093011     0.5702399
C           5.7656215    -0.0291763     0.8685014
H           6.6531788    -0.6540410     0.9215550
C           2.2810650     2.4740695     0.5152549
O           2.3035441     3.3423219    -0.3451756
N           1.2069717     2.2803588     1.3467886
H           0.3538217     2.7506994     1.0700868
H           1.0979876     1.3740282     1.7814842
20
416_C8H9NO2_10-9-15-16 (-105,) energy =    -515.4663682
O           2.1621235    -0.4551301     0.3633433
C           2.0399864    -1.8519730     0.1424975
H           0.9795260    -2.0329984    -0.0416926
H           2.3595042    -2.4301435     1.0197418
H           2.6204714    -2.1717826    -0.7321495
C           5.8811620     1.3151455     1.0030024
H           6.8370780     1.8028831     1.1684749
C           4.7172777     2.0759054     0.8760485
H           4.7633005     3.1602009     0.9253535
C           3.4778104     1.4669641     0.6788539
C           3.4126958     0.0656468     0.5636299
C           4.5766454    -0.7024581     0.6751726
H           4.5378797    -1.7821907     0.5876608
C           5.8034180    -0.0716527     0.8979756
H           6.7012214    -0.6778143     0.9849602
C           2.2573036     2.3243599     0.4235144
O           2.1274647     2.9794323    -0.5987819
N           1.3326224     2.3338359     1.4360472
H           0.4331210     2.7421832     1.2138420
H           1.3376106     1.5842334     2.1135731
20
416_C8H9NO2_10-9-15-16 (-90,) energy =    -515.4652005
O           2.1697172    -0.5168514     0.2760076
C           2.0723046    -1.9160500     0.0617687
H           1.0210315    -2.1113551    -0.1567579
H           2.3688596    -2.4838809     0.9538789
H           2.6860056    -2.2351609    -0.7903186
C           5.8304859     1.3130739     1.0532426
H           6.7698522     1.8176824     1.2582628
C           4.6561045     2.0538122     0.8945759
H           4.6795964     3.1377605     0.9687905
C           3.4413387     1.4228287     0.6308089
C           3.4025471     0.0204526     0.5178088
C           4.5751916    -0.7265127     0.6714436
H           4.5581342    -1.8070177     0.5859152
C           5.7823824    -0.0737107     0.9374923
H           6.6875674    -0.6637177     1.0543088
C           2.1934404     2.2417269     0.3733869
O           1.9040582     2.6705763    -0.7317220
N           1.4518411     2.5096738     1.4941018
H           0.5433461     2.9335333     1.3552624
H           1.5940745     1.9724053     2.3370936
20
416_C8H9NO2_10-9-15-16 (-75,) energy =    -515.4654026
O           2.1786488    -0.5886554     0.2082890
C           2.1146104    -1.9885659    -0.0122754
H           1.0716629    -2.2042891    -0.2502074
H           2.4070575    -2.5535597     0.8830324
H           2.7495976    -2.2915830    -0.8546492
C           5.7794731     1.3111326     1.0919794
H           6.7023279     1.8322512     1.3283525
C           4.5909349     2.0272019     0.9238005
H           4.5864228     3.1091334     1.0266428
C           3.3991077     1.3764344     0.6055697
C           3.3913883    -0.0262808     0.4769198
C           4.5775561    -0.7481531     0.6480818
H           4.5859839    -1.8277751     0.5515487
C           5.7643158    -0.0737068     0.9501541
H           6.6792947    -0.6461909     1.0776196
C           2.1373057     2.1731831     0.3568719
O           1.6932633     2.3863809    -0.7592580
N           1.5842292     2.7106481     1.4915511
H           0.6880528     3.1704881     1.3948394
H           1.8358630     2.3542624     2.4019410
20
416_C8H9NO2_10-9-15-16 (-60,) energy =    -515.4661272
O           2.1708771    -0.6455099     0.1792425
C           2.1391050    -2.0428167    -0.0623997
H           1.1016780    -2.2772959    -0.3063045
H           2.4420353    -2.6149001     0.8249361
H           2.7821044    -2.3191979    -0.9079116
C           5.7255627     1.3069849     1.1385955
H           6.6369543     1.8389075     1.3945668
C           4.5235176     2.0023451     0.9846528
H           4.4966296     3.0807366     1.1157720
C           3.3444548     1.3406135     0.6357508
C           3.3652688    -0.0600317     0.4654293
C           4.5664186    -0.7605455     0.6256188
H           4.5968325    -1.8366021     0.4998368
C           5.7377993    -0.0729024     0.9550932
H           6.6628379    -0.6315232     1.0711610
C           2.0760043     2.1256228     0.4044258
O           1.4858797     2.1515115    -0.6631696
N           1.6903217     2.8915748     1.4802319
H           0.7981231     3.3626474     1.4023737
H           2.0189119     2.6657760     2.4079818
20
416_C8H9NO2_10-9-15-16 (-45,) energy =    -515.4665114
O           2.1751479    -0.6963071     0.1604267
C           2.1764047    -2.0893760    -0.1054382
H           1.1446710    -2.3421336    -0.3549411
H           2.4911232    -2.6701999     0.7720922
H           2.8259745    -2.3365673    -0.9550099
C           5.6897723     1.3018415     1.1771426
H           6.5920223     1.8435497     1.4445025
C           4.4766738     1.9786608     1.0393588
H           4.4366063     3.0544204     1.1856723
C           3.3026610     1.3101402     0.6777258
C           3.3501839    -0.0869732     0.4624510
C           4.5658664    -0.7681046     0.6062584
H           4.6157258    -1.8392496     0.4499571
C           5.7250596    -0.0723752     0.9569176
H           6.6590120    -0.6190515     1.0578904
C           2.0304851     2.0876482     0.4614065
O           1.3040009     1.9466367    -0.5089649
N           1.7855894     3.0455110     1.4250957
H           0.8872899     3.5072473     1.3614557
H           2.1777377     2.9375233     2.3498574
20
416_C8H9NO2_10-9-15-16 (-30,) energy =    -515.4659255
O           2.1704045    -0.7303920     0.1459305
C           2.1923313    -2.1198450    -0.1376687
H           1.1633623    -2.3836228    -0.3869644
H           2.5184671    -2.7072583     0.7312007
H           2.8420078    -2.3471330    -0.9927842
C           5.6621418     1.2814762     1.2169272
H           6.5606493     1.8255143     1.4918526
C           4.4433828     1.9488535     1.1006858
H           4.4035637     3.0223305     1.2599999
C           3.2655953     1.2833341     0.7363800
C           3.3298524    -0.1075321     0.4684236
C           4.5553575    -0.7784648     0.5884537
H           4.6152706    -1.8428357     0.3952796
C           5.7089328    -0.0858562     0.9578610
H           6.6479572    -0.6272520     1.0383712
C           1.9925360     2.0620180     0.5447401
O           1.1367697     1.7876751    -0.2814054
N           1.8720985     3.1742140     1.3629195
H           0.9628048     3.6176309     1.3260840
H           2.3251582     3.1736398     2.2664892
20
416_C8H9NO2_10-9-15-16 (-15,) energy =    -515.4643043
O           2.1769586    -0.7602932     0.1245738
C           2.2254964    -2.1434663    -0.1863223
H           1.2029435    -2.4178172    -0.4499980
H           2.5528644    -2.7426564     0.6738686
H           2.8862132    -2.3436047    -1.0398007
C           5.6383031     1.2742415     1.2490730
H           6.5313855     1.8241534     1.5296814
C           4.4129630     1.9285106     1.1474734
H           4.3769507     3.0003824     1.3139498
C           3.2327476     1.2612054     0.7858315
C           3.3179816    -0.1227317     0.4745652
C           4.5536697    -0.7807519     0.5785986
H           4.6254840    -1.8386068     0.3570245
C           5.6997433    -0.0874924     0.9635928
H           6.6444501    -0.6207348     1.0310282
C           1.9502630     2.0298511     0.6237488
O           0.9844021     1.6351837    -0.0109555
N           1.9237259     3.2708378     1.2502502
H           1.0012187     3.6883592     1.2522036
H           2.4498310     3.4004006     2.1037476
20
416_C8H9NO2_10-9-15-16 (0,) energy =    -515.4621387
O           2.1755047    -0.7810002     0.1120659
C           2.2404007    -2.1536096    -0.2407982
H           1.2214202    -2.4294676    -0.5163849
H           2.5697289    -2.7751279     0.6024068
H           2.9064673    -2.3217212    -1.0971666
C           5.6228348     1.2483512     1.2814696
H           6.5132773     1.7981079     1.5703775
C           4.3936819     1.8965185     1.2030135
H           4.3696067     2.9629114     1.4000251
C           3.2090666     1.2351331     0.8410800
C           3.3045196    -0.1416453     0.4921321
C           4.5463955    -0.7937515     0.5709415
H           4.6227246    -1.8443565     0.3192784
C           5.6909640    -0.1063643     0.9657635
H           6.6387218    -0.6360153     1.0157758
C           1.9075439     1.9839466     0.7393353
O           0.8574309     1.4870105     0.3603563
N           1.9443868     3.3260412     1.1054870
H           1.0154659     3.7228946     1.1775866
H           2.5812125     3.6294185     1.8286448
20
416_C8H9NO2_10-9-15-16 (15,) energy =    -515.4643046
O           2.1604077    -0.7776405     0.1038534
C           2.2210783    -2.1289046    -0.3234970
H           1.1970893    -2.3955546    -0.5894893
H           2.5717197    -2.7916965     0.4782532
H           2.8686187    -2.2490396    -1.2023353
C           5.6115138     1.1967053     1.3595569
H           6.4964035     1.7231980     1.7038139
C           4.3716889     1.8312770     1.3616959
H           4.3015684     2.8424015     1.7497460
C           3.2002863     1.1913616     0.9290667
C           3.2939492    -0.1656153     0.5177650
C           4.5447736    -0.8029962     0.5155574
H           4.6283227    -1.8329245     0.1906077
C           5.6900371    -0.1261145     0.9309600
H           6.6448074    -0.6454758     0.9239320
C           1.8765574     1.8998488     1.0180900
O           0.7915171     1.3393920     1.0115359
N           1.9547015     3.2840900     1.1246303
H           1.0534759     3.7352114     1.0259384
H           2.7218512     3.7673444     0.6773548
20
416_C8H9NO2_10-9-15-16 (30,) energy =    -515.4659255
O           2.0856505    -0.7040133     0.9462583
C           2.0838244    -2.1209661     1.0073357
H           1.0391964    -2.4065132     1.1404503
H           2.6713763    -2.4891205     1.8583393
H           2.4683996    -2.5685499     0.0809861
C           5.6493644     1.4031337     0.4495217
H           6.5664187     1.9712535     0.3265232
C           4.4273010     2.0606005     0.5858178
H           4.4016989     3.1462164     0.5959494
C           3.2250574     1.3622966     0.7584476
C           3.2665541    -0.0541700     0.8068063
C           4.4956024    -0.7146441     0.6666790
H           4.5389041    -1.7968817     0.6927200
C           5.6741247     0.0115464     0.4916452
H           6.6149861    -0.5232973     0.3912454
C           1.9438539     2.1185358     0.9828876
O           1.0315674     1.7292588     1.6944446
N           1.8840913     3.3473294     0.3446102
H           0.9756760     3.7918998     0.3885330
H           2.3993246     3.4829067    -0.5143750
20
416_C8H9NO2_10-9-15-16 (45,) energy =    -515.4665113
O           2.0915160    -0.6680472     0.9379505
C           2.0702823    -2.0854984     0.9793134
H           1.0229232    -2.3601633     1.1142599
H           2.6581607    -2.4725956     1.8215551
H           2.4439713    -2.5248834     0.0445626
C           5.6742450     1.4166315     0.4938887
H           6.5945180     1.9811611     0.3781791
C           4.4563573     2.0799413     0.6533757
H           4.4296785     3.1657672     0.6766687
C           3.2580312     1.3790920     0.8232171
C           3.2864944    -0.0350111     0.8174736
C           4.5073642    -0.7016758     0.6514705
H           4.5430871    -1.7846526     0.6393350
C           5.6902046     0.0245228     0.4957560
H           6.6274067    -0.5122474     0.3738971
C           1.9759552     2.1302848     1.0716799
O           1.1827653     1.8481090     1.9551397
N           1.8019845     3.2314557     0.2571425
H           0.9023870     3.6892132     0.3306590
H           2.2573069     3.2645477    -0.6441065
20
416_C8H9NO2_10-9-15-16 (60,) energy =    -515.4661268
O           2.0924583    -0.6140368     0.9305369
C           2.0400430    -2.0314379     0.9420722
H           0.9876422    -2.2873691     1.0750003
H           2.6227950    -2.4484565     1.7734636
H           2.4012870    -2.4583864    -0.0032516
C           5.7106260     1.4160808     0.5372113
H           6.6390399     1.9692006     0.4314758
C           4.5030895     2.0951057     0.7179934
H           4.4887212     3.1809145     0.7589254
C           3.3007034     1.4030404     0.8765665
C           3.3053063    -0.0070414     0.8223373
C           4.5124682    -0.6902355     0.6341021
H           4.5314673    -1.7729123     0.5880787
C           5.7058343     0.0244855     0.4985032
H           6.6349665    -0.5215004     0.3576091
C           2.0211148     2.1593763     1.1399804
O           1.3557782     2.0237206     2.1536702
N           1.7153395     3.0907038     0.1745707
H           0.8206447     3.5550255     0.2633166
H           2.1097274     3.0107689    -0.7515640
20
416_C8H9NO2_10-9-15-16 (75,) energy =    -515.4654021
O           2.0944156    -0.5531802     0.8975518
C           2.0121930    -1.9694071     0.8945076
H           0.9545414    -2.2057231     1.0226315
H           2.5850260    -2.4064049     1.7224526
H           2.3666035    -2.3937525    -0.0545255
C           5.7536592     1.4126567     0.5808096
H           6.6922090     1.9519958     0.4951824
C           4.5574643     2.1095658     0.7736443
H           4.5628769     3.1942822     0.8409466
C           3.3443300     1.4332890     0.9006212
C           3.3245825     0.0279046     0.8075801
C           4.5186052    -0.6741521     0.6107588
H           4.5169880    -1.7556489     0.5377061
C           5.7257030     0.0229358     0.5031580
H           6.6463522    -0.5348846     0.3533782
C           2.0693277     2.1981345     1.1803989
O           1.5466994     2.2402588     2.2819526
N           1.6009755     2.9139152     0.1077357
H           0.7014313     3.3656813     0.2110019
H           1.9173328     2.7009511    -0.8269789
20
416_C8H9NO2_10-9-15-16 (90,) energy =    -515.4651988
O           2.1003158    -0.4819707     0.8573838
C           1.9836789    -1.8958626     0.8369340
H           0.9188931    -2.1083985     0.9471163
H           2.5338066    -2.3559650     1.6677129
H           2.3415535    -2.3180481    -0.1116967
C           5.8093941     1.4014634     0.6336865
H           6.7617658     1.9199522     0.5765745
C           4.6278903     2.1221886     0.8276295
H           4.6572033     3.2038540     0.9283938
C           3.3969709     1.4721505     0.9032243
C           3.3483408     0.0701433     0.7890046
C           4.5276716    -0.6578265     0.5994744
H           4.5047955    -1.7379845     0.5111089
C           5.7509187     0.0145866     0.5240965
H           6.6612801    -0.5605583     0.3774798
C           2.1359009     2.2546617     1.2046774
O           1.7742810     2.5058726     2.3427481
N           1.4718586     2.7071462     0.0948768
H           0.5572690     3.1145515     0.2423951
H           1.6679260     2.3094260    -0.8122665
20
416_C8H9NO2_10-9-15-16 (105,) energy =    -515.4663677
O           2.0938839    -0.4023039     0.7708768
C           1.9528309    -1.8146644     0.7574931
H           0.8817154    -2.0080501     0.8386386
H           2.4710189    -2.2773102     1.6070161
H           2.3301721    -2.2504700    -0.1771870
C           5.8533174     1.3942580     0.6726226
H           6.8195608     1.8891605     0.6514035
C           4.6858411     2.1416459     0.8401053
H           4.7388039     3.2193165     0.9669732
C           3.4337410     1.5269352     0.8543454
C           3.3568715     0.1260801     0.7405779
C           4.5232337    -0.6309058     0.5869977
H           4.4745957    -1.7101884     0.4988381
C           5.7646460     0.0095553     0.5504017
H           6.6643709    -0.5877654     0.4287769
C           2.2009983     2.3499762     1.1591199
O           2.0014840     2.8370219     2.2608727
N           1.3493824     2.5331167     0.0996872
H           0.4370057     2.9123952     0.3213280
H           1.3986218     1.8977290    -0.6845165
20
416_C8H9NO2_10-9-15-16 (120,) energy =    -515.4688430
O           2.0963627    -0.3687718     0.6923866
C           1.9438469    -1.7807939     0.6754348
H           0.8688033    -1.9647593     0.7174636
H           2.4261187    -2.2453712     1.5444982
H           2.3518111    -2.2207916    -0.2439203
C           5.8837580     1.3793694     0.7097711
H           6.8575942     1.8594523     0.7187283
C           4.7246522     2.1440180     0.8391753
H           4.7841009     3.2195826     0.9763957
C           3.4594050     1.5534776     0.8064651
C           3.3658622     0.1516633     0.7028837
C           4.5250855    -0.6243503     0.5946674
H           4.4625468    -1.7034376     0.5151851
C           5.7768820    -0.0050079     0.5925111
H           6.6699273    -0.6179594     0.5040510
C           2.2601383     2.4272683     1.0911288
O           2.2128542     3.1436362     2.0807341
N           1.2515123     2.3772977     0.1623142
H           0.3771658     2.8007309     0.4484083
H           1.1810281     1.5545089    -0.4210728
20
416_C8H9NO2_10-9-15-16 (135,) energy =    -515.4717333
O           2.0952353    -0.3637714     0.6406095
C           1.9432696    -1.7763887     0.6105078
H           0.8676575    -1.9602771     0.6323003
H           2.4099515    -2.2459320     1.4849981
H           2.3675846    -2.2085260    -0.3047552
C           5.8927296     1.3677808     0.7443486
H           6.8700237     1.8398355     0.7756440
C           4.7374575     2.1401148     0.8452178
H           4.7970572     3.2147434     0.9852778
C           3.4644397     1.5649533     0.7841579
C           3.3638158     0.1618684     0.6779701
C           4.5200340    -0.6224769     0.5980992
H           4.4503285    -1.7008157     0.5168586
C           5.7770755    -0.0157453     0.6249110
H           6.6659480    -0.6373530     0.5572079
C           2.2906835     2.4857860     1.0175547
O           2.3536415     3.3928801     1.8375662
N           1.1798485     2.2679735     0.2440324
H           0.3491198     2.7689757     0.5332144
H           1.0453292     1.3457345    -0.1483506
20
416_C8H9NO2_10-9-15-16 (150,) energy =    -515.4739267
O           2.0992525    -0.3555290     0.6263409
C           1.9511839    -1.7679022     0.5631124
H           0.8758096    -1.9541321     0.5645716
H           2.4054048    -2.2551239     1.4343123
H           2.3902318    -2.1779224    -0.3550136
C           5.9007005     1.3699563     0.7856571
H           6.8804178     1.8358613     0.8311551
C           4.7483383     2.1474992     0.8651926
H           4.8062010     3.2226679     0.9982392
C           3.4701351     1.5827455     0.7914387
C           3.3643306     0.1785622     0.6768935
C           4.5185995    -0.6107001     0.6132312
H           4.4457678    -1.6883040     0.5269961
C           5.7785266    -0.0124174     0.6618641
H           6.6641110    -0.6399448     0.6066624
C           2.3162300     2.5435033     0.9613903
O           2.4625335     3.5964647     1.5728933
N           1.1303880     2.2052678     0.3703965
H           0.3391687     2.7867481     0.6120778
H           0.9607824     1.2414721     0.1190660
20
416_C8H9NO2_10-9-15-16 (165,) energy =    -515.4751260
O           2.0972635    -0.3626874     0.6077682
C           1.9525886    -1.7734717     0.5085334
H           0.8776630    -1.9605320     0.4842882
H           2.3901306    -2.2811131     1.3765898
H           2.4099582    -2.1597911    -0.4105806
C           5.9000530     1.3562625     0.8201720
H           6.8805040     1.8191409     0.8790413
C           4.7503561     2.1387732     0.8738088
H           4.8069161     3.2159104     0.9884657
C           3.4678629     1.5830668     0.7911578
C           3.3590832     0.1777266     0.6723129
C           4.5118273    -0.6155624     0.6265370
H           4.4346247    -1.6924760     0.5373002
C           5.7741711    -0.0255792     0.6966786
H           6.6569627    -0.6582583     0.6567376
C           2.3292969     2.5742810     0.8922921
O           2.5350761     3.7268532     1.2627143
N           1.0862822     2.1522453     0.5226233
H           0.3274511     2.7978268     0.6895004
H           0.8942849     1.1700915     0.3915329
20
416_C8H9NO2_10-9-15-16 (180,) energy =    -515.4754277
O           2.1132141    -0.3675996     0.5522960
C           1.9754973    -1.7782670     0.4420232
H           0.9020436    -1.9684485     0.3911693
H           2.3944826    -2.2903627     1.3166551
H           2.4550273    -2.1568095    -0.4688273
C           5.9071024     1.3596469     0.8479557
H           6.8855830     1.8239285     0.9257388
C           4.7559748     2.1412176     0.8683755
H           4.8078140     3.2206158     0.9614077
C           3.4746875     1.5844856     0.7710451
C           3.3705124     0.1784310     0.6486990
C           4.5253322    -0.6131049     0.6272959
H           4.4514800    -1.6897684     0.5328176
C           5.7852792    -0.0226572     0.7266965
H           6.6690376    -0.6549975     0.7080774
C           2.3391973     2.5851395     0.8114309
O           2.5690535     3.7872085     0.9214613
N           1.0671722     2.1099625     0.7226824
H           0.3217469     2.7898603     0.7517069
H           0.8729377     1.1246743     0.6315391
