20
416_C8H9NO2_1-0-10-9 (-165,) energy =    -515.4750541
O           2.1175328    -0.3679595     0.4081468
C           1.9630762    -1.7776031     0.5225381
H           0.8869844    -1.9604841     0.5216102
H           2.3991636    -2.1492211     1.4573330
H           2.4161087    -2.3028433    -0.3271609
C           5.8952397     1.3548534     0.8819105
H           6.8701223     1.8167098     1.0059192
C           4.7411310     2.1310113     0.9218831
H           4.7870599     3.2030631     1.0801782
C           3.4639903     1.5763946     0.7693535
C           3.3688367     0.1801408     0.5633388
C           4.5264195    -0.6065041     0.5260913
H           4.4560792    -1.6761471     0.3672738
C           5.7817990    -0.0195278     0.6831482
H           6.6684915    -0.6470188     0.6479449
C           2.3227039     2.5680900     0.8465871
O           2.5412037     3.7558648     1.0732053
N           1.0597103     2.1011081     0.6509564
H           0.3088304     2.7731968     0.7079958
H           0.8760335     1.1248403     0.4768752
20
416_C8H9NO2_1-0-10-9 (-150,) energy =    -515.4740431
O           2.1411212    -0.3757373     0.2563100
C           1.9441940    -1.7451961     0.5992842
H           0.8633346    -1.8996822     0.6145909
H           2.3646725    -1.9676415     1.5865917
H           2.3867918    -2.4164653    -0.1465954
C           5.8880855     1.3527417     0.9169365
H           6.8565858     1.8132346     1.0877228
C           4.7283473     2.1184670     0.9773843
H           4.7629853     3.1794713     1.2000757
C           3.4584527     1.5633127     0.7687352
C           3.3806150     0.1830609     0.4771889
C           4.5438180    -0.5934274     0.4205968
H           4.4781215    -1.6520606     0.1950450
C           5.7909864    -0.0098624     0.6375594
H           6.6839071    -0.6271652     0.5845950
C           2.3051474     2.5377732     0.8802681
O           2.5043010     3.7088171     1.1940839
N           1.0540556     2.0713352     0.6190535
H           0.2959528     2.7355251     0.6734905
H           0.8943261     1.1141624     0.3431074
20
416_C8H9NO2_1-0-10-9 (-135,) energy =    -515.4728094
O           2.1944280    -0.3979902     0.1091870
C           1.9255785    -1.6833224     0.6722338
H           0.8511346    -1.8444688     0.5605862
H           2.1964916    -1.7103934     1.7337014
H           2.4575271    -2.4799335     0.1392212
C           5.9011394     1.3486229     0.9380952
H           6.8610506     1.8106834     1.1489693
C           4.7326557     2.0975125     1.0218157
H           4.7513690     3.1455263     1.3008741
C           3.4725216     1.5377574     0.7643019
C           3.4182795     0.1768480     0.3967893
C           4.5910777    -0.5814738     0.3116985
H           4.5356030    -1.6249437     0.0194353
C           5.8272438     0.0015149     0.5810848
H           6.7297157    -0.5993273     0.5060323
C           2.3032694     2.4894740     0.9071128
O           2.4809168     3.6466046     1.2789420
N           1.0622291     2.0118236     0.6170506
H           0.2993565     2.6724511     0.6473049
H           0.9376866     1.0864691     0.2330535
20
416_C8H9NO2_1-0-10-9 (-120,) energy =    -515.4723163
O           2.2482878    -0.4432111    -0.0240150
C           1.8780211    -1.5943481     0.7410290
H           0.9132776    -1.9230392     0.3487644
H           1.7793636    -1.3410762     1.8036563
H           2.6049811    -2.4061211     0.6285830
C           5.9176549     1.3256404     0.9240809
H           6.8711524     1.7888440     1.1604863
C           4.7397982     2.0538611     1.0451614
H           4.7453130     3.0865868     1.3769047
C           3.4882226     1.4900707     0.7522287
C           3.4545981     0.1495311     0.3211113
C           4.6377777    -0.5838086     0.1868090
H           4.5882890    -1.6060807    -0.1756336
C           5.8654516    -0.0006722     0.4894814
H           6.7779984    -0.5798520     0.3764051
C           2.3022600     2.4142953     0.9307830
O           2.4537166     3.5475231     1.3785127
N           1.0754543     1.9339935     0.5851707
H           0.3063147     2.5876612     0.6172832
H           0.9865224     1.0493980     0.1052382
20
416_C8H9NO2_1-0-10-9 (-105,) energy =    -515.4723912
O           2.2988356    -0.4892029    -0.1098894
C           1.8282740    -1.4773567     0.8148871
H           0.9382557    -1.9217870     0.3639800
H           1.5671525    -1.0189366     1.7766493
H           2.5820839    -2.2565066     0.9767237
C           5.9259752     1.3127169     0.9270635
H           6.8716725     1.7800013     1.1859852
C           4.7362368     2.0134108     1.0910016
H           4.7256260     3.0261524     1.4795495
C           3.4951695     1.4437217     0.7666390
C           3.4861961     0.1291269     0.2638073
C           4.6795455    -0.5772498     0.0910758
H           4.6361647    -1.5818392    -0.3196338
C           5.8980258     0.0105554     0.4216291
H           6.8212456    -0.5443449     0.2780150
C           2.2895156     2.3309591     0.9867770
O           2.4037450     3.4216421     1.5377604
N           1.0841840     1.8618530     0.5546668
H           0.3074054     2.5061775     0.5980854
H           1.0362010     1.0340289    -0.0237354
20
416_C8H9NO2_1-0-10-9 (-90,) energy =    -515.4720893
O           2.3487038    -0.5334417    -0.1536188
C           1.7728643    -1.3369382     0.8859603
H           0.9044630    -1.8322150     0.4456962
H           1.4551877    -0.7177584     1.7328677
H           2.4887112    -2.0921646     1.2320592
C           5.9299138     1.3317530     0.9296101
H           6.8654853     1.8090241     1.2065948
C           4.7236700     1.9917531     1.1405562
H           4.6917371     2.9829416     1.5803519
C           3.4962432     1.4087975     0.7910569
C           3.5165187     0.1209408     0.2220305
C           4.7250314    -0.5442873     0.0051546
H           4.6975109    -1.5320521    -0.4454189
C           5.9316027     0.0595684     0.3528837
H           6.8678002    -0.4623184     0.1739619
C           2.2717476     2.2632584     1.0280435
O           2.3430093     3.3057452     1.6708588
N           1.0970270     1.8247880     0.4884522
H           0.3136487     2.4613023     0.5316950
H           1.0899302     1.0477294    -0.1588265
20
416_C8H9NO2_1-0-10-9 (-75,) energy =    -515.4707707
O           2.4033200    -0.6423264    -0.1442421
C           1.7225252    -1.2572469     0.9598415
H           0.8709051    -1.7905987     0.5313276
H           1.3650342    -0.5134754     1.6786848
H           2.3842605    -1.9712561     1.4653022
C           5.9360476     1.3226397     0.9217376
H           6.8610830     1.8168693     1.2041894
C           4.7130955     1.9294700     1.1907213
H           4.6590035     2.8982810     1.6761162
C           3.4988811     1.3249875     0.8329907
C           3.5470134     0.0639639     0.2060705
C           4.7724136    -0.5465182    -0.0683698
H           4.7648433    -1.5190319    -0.5511112
C           5.9662458     0.0842956     0.2768884
H           6.9147799    -0.3961961     0.0526078
C           2.2587222     2.1517868     1.0779094
O           2.2790284     3.1285069     1.8193720
N           1.1315428     1.7786934     0.4031624
H           0.3383525     2.4019503     0.4544642
H           1.1584490     1.0424043    -0.2893607
20
416_C8H9NO2_1-0-10-9 (-60,) energy =    -515.4680776
O           2.4520882    -0.7378757    -0.0834543
C           1.6544154    -1.1755556     1.0266920
H           0.8989117    -1.8409819     0.6025181
H           1.1614104    -0.3446624     1.5365662
H           2.2722724    -1.7347830     1.7398136
C           5.9363172     1.3464526     0.9111880
H           6.8537218     1.8590940     1.1852714
C           4.7035178     1.8981085     1.2448290
H           4.6343157     2.8462358     1.7680111
C           3.4980396     1.2694559     0.8974887
C           3.5623204     0.0315732     0.2257882
C           4.7999529    -0.5205321    -0.1155799
H           4.8083137    -1.4808513    -0.6217861
C           5.9827833     0.1403494     0.2085065
H           6.9377337    -0.2985062    -0.0679565
C           2.2502010     2.0782852     1.1522088
O           2.2177779     2.9712813     1.9912100
N           1.1820042     1.8057785     0.3437986
H           0.3792632     2.4147600     0.4114211
H           1.2362834     1.1199334    -0.3964404
20
416_C8H9NO2_1-0-10-9 (-45,) energy =    -515.4649558
O           2.5260864    -0.8279601     0.0303945
C           1.5848832    -1.1059031     1.0754602
H           1.1733166    -2.0927759     0.8485574
H           0.7803820    -0.3681799     1.1062474
H           2.0867178    -1.1365424     2.0494447
C           5.9549585     1.3908758     0.9010030
H           6.8659086     1.9277763     1.1485030
C           4.7214033     1.8831505     1.3095568
H           4.6463373     2.8119939     1.8657629
C           3.5210979     1.2230022     0.9948999
C           3.5935134    -0.0009442     0.2980197
C           4.8371507    -0.4885003    -0.1244020
H           4.8557034    -1.4386893    -0.6490177
C           6.0074963     0.2084973     0.1568935
H           6.9623185    -0.1872709    -0.1788649
C           2.2682412     1.9978504     1.3087204
O           2.1922806     2.7648289     2.2603938
N           1.2411695     1.8579029     0.4107434
H           0.4617892     2.4947386     0.5010434
H           1.3625793     1.3559251    -0.4573342
20
416_C8H9NO2_1-0-10-9 (-30,) energy =    -515.4628814
O           2.5969775    -0.9785409     0.1239539
C           1.5146565    -1.0840145     1.0518412
H           1.2125436    -2.1346481     1.0377102
H           0.6730397    -0.4515269     0.7620791
H           1.8358322    -0.8114947     2.0637422
C           5.9443050     1.4096117     0.8248802
H           6.8417613     1.9846068     1.0322722
C           4.7072015     1.8605692     1.2652681
H           4.6181228     2.7951079     1.8103954
C           3.5209484     1.1521619     0.9987195
C           3.6152266    -0.0866908     0.3301947
C           4.8664792    -0.5321893    -0.1256485
H           4.9073112    -1.4930398    -0.6291783
C           6.0154878     0.2139925     0.1018737
H           6.9727642    -0.1534946    -0.2582180
C           2.2558814     1.8883545     1.3522816
O           2.1231031     2.5182154     2.3928654
N           1.2788335     1.8739191     0.3843253
H           0.5097338     2.5183026     0.5127009
H           1.4925982     1.5785237    -0.5578565
20
416_C8H9NO2_1-0-10-9 (-15,) energy =    -515.4618636
O           2.5364224    -1.2741365     0.2078700
C           1.1544242    -1.1358818     0.5298895
H           0.7341832    -2.1346278     0.3928461
H           0.6538234    -0.4408103    -0.1550431
H           1.0101293    -0.7912131     1.5548693
C           5.5977211     1.5569507     0.2441326
H           6.4208920     2.2647797     0.2259371
C           4.2937862     2.0022124     0.4155272
H           4.1007314     3.0636768     0.5450297
C           3.1937229     1.1216484     0.4671335
C           3.4397068    -0.2627899     0.3182553
C           4.7646240    -0.7038338     0.1404899
H           4.9185483    -1.7710135     0.0158350
C           5.8285195     0.1846325     0.1101757
H           6.8385457    -0.1935401    -0.0231201
C           1.8656347     1.7576972     0.7975456
O           1.2098590     1.4968015     1.7986552
N           1.4848324     2.7403863    -0.0787435
H           0.6069433     3.2118712     0.0913973
H           1.9290256     2.8483177    -0.9778936
20
416_C8H9NO2_1-0-10-9 (0,) energy =    -515.4627959
O           2.5645954    -1.3014280     0.3952769
C           1.1535954    -1.1166294     0.4597246
H           0.7314362    -2.1054535     0.2674907
H           0.8098908    -0.4229151    -0.3183207
H           0.8397858    -0.7436540     1.4355788
C           5.5888371     1.5579178     0.1593042
H           6.4027241     2.2715085     0.0738592
C           4.2849731     1.9998409     0.3364518
H           4.0851145     3.0651706     0.4115770
C           3.1967774     1.1129602     0.4758322
C           3.4559862    -0.2755174     0.4046353
C           4.7818148    -0.7140243     0.2261148
H           4.9450255    -1.7853075     0.1644353
C           5.8335535     0.1818220     0.1135143
H           6.8447470    -0.1933521    -0.0195936
C           1.8774912     1.7398213     0.8449062
O           1.2408395     1.4460823     1.8498576
N           1.4755996     2.7479004     0.0067302
H           0.6027401     3.2131128     0.2147134
H           1.8942436     2.8818366    -0.9010492
20
416_C8H9NO2_1-0-10-9 (15,) energy =    -515.4635398
O           2.5539981    -1.2954992     0.5751858
C           1.1514368    -1.1183130     0.3953538
H           0.7630703    -2.1159384     0.1771229
H           0.9446010    -0.4576331    -0.4566331
H           0.6823410    -0.7081407     1.2905195
C           5.5648491     1.5460354     0.0847402
H           6.3745601     2.2551574    -0.0583815
C           4.2648920     1.9953726     0.2714148
H           4.0657361     3.0628361     0.3024534
C           3.1843306     1.1139420     0.4856192
C           3.4463511    -0.2756912     0.4778479
C           4.7681869    -0.7217198     0.2929793
H           4.9336337    -1.7943916     0.2842549
C           5.8136757     0.1698704     0.1079974
H           6.8228183    -0.2089369    -0.0304336
C           1.8694684     1.7340600     0.8701147
O           1.2220289     1.3957630     1.8542109
N           1.4775544     2.7858521     0.0788224
H           0.5898280     3.2191634     0.2934618
H           1.8701299     2.9270411    -0.8398144
20
416_C8H9NO2_1-0-10-9 (30,) energy =    -515.4638190
O           2.5368695    -1.2558505     0.7436657
C           1.1718920    -1.1305512     0.3476602
H           0.8322173    -2.1482020     0.1384512
H           1.0818073    -0.5263606    -0.5642311
H           0.5714511    -0.6813883     1.1400582
C           5.5494781     1.5369601     0.0270145
H           6.3579285     2.2366555    -0.1625824
C           4.2564116     2.0001729     0.2329821
H           4.0648751     3.0694483     0.2353354
C           3.1814044     1.1301206     0.5061126
C           3.4388471    -0.2596481     0.5399644
C           4.7513263    -0.7194226     0.3364114
H           4.9124635    -1.7923704     0.3650000
C           5.7948818     0.1619102     0.0912467
H           6.7989430    -0.2246927    -0.0618485
C           1.8662947     1.7433975     0.8954929
O           1.2010313     1.3664303     1.8531821
N           1.4864154     2.8260769     0.1394993
H           0.5911467     3.2422232     0.3566798
H           1.8809479     2.9932710    -0.7739407
20
416_C8H9NO2_1-0-10-9 (45,) energy =    -515.4649558
O           2.4809448    -0.8981046     1.0477942
C           1.6220796    -0.9947688    -0.0960086
H           1.1986313    -2.0019739    -0.0640867
H           2.1958145    -0.8708575    -1.0216958
H           0.8191811    -0.2552502    -0.0664876
C           5.9564909     1.4044522     0.8086952
H           6.8812723     1.9669295     0.7206767
C           4.7551330     1.9667019     0.3945408
H           4.7182955     2.9741727    -0.0072006
C           3.5372718     1.2740841     0.5069375
C           3.5620925    -0.0473957     0.9988773
C           4.7724422    -0.6073263     1.4281973
H           4.7553837    -1.6302599     1.7911583
C           5.9577717     0.1164743     1.3523769
H           6.8862646    -0.3364337     1.6897594
C           2.3083998     2.0999058     0.2305084
O           2.3010496     3.0119428    -0.5867083
N           1.2173315     1.8243419     1.0143823
H           0.4443550     2.4737706     0.9708290
H           1.2752048     1.1869829     1.7958584
20
416_C8H9NO2_1-0-10-9 (60,) energy =    -515.4680776
O           2.3982189    -0.8271060     1.1689190
C           1.6880170    -1.0719769    -0.0541598
H           0.9054688    -1.7912362     0.1983991
H           2.3599822    -1.5129629    -0.8004972
H           1.2313695    -0.1652371    -0.4575265
C           5.9388573     1.3624068     0.7900693
H           6.8721830     1.9051976     0.6724429
C           4.7323859     1.9710720     0.4593288
H           4.6988617     2.9921559     0.0936551
C           3.5067724     1.3042764     0.6086078
C           3.5254194    -0.0267961     1.0728991
C           4.7361290    -0.6372044     1.4115312
H           4.7103232    -1.6670577     1.7539694
C           5.9372768     0.0578026     1.2886767
H           6.8705232    -0.4279916     1.5607272
C           2.2783326     2.1539930     0.3962211
O           2.3054335     3.1717056    -0.2863789
N           1.1535111     1.7625316     1.0673153
H           0.3556641     2.3810043     1.0398086
H           1.1547933     0.9650934     1.6881007
20
416_C8H9NO2_1-0-10-9 (75,) energy =    -515.4707707
O           2.3446290    -0.7422971     1.2406138
C           1.7512434    -1.1639917     0.0034089
H           0.8719560    -1.7528012     0.2745207
H           2.4519635    -1.7918487    -0.5604886
H           1.4458391    -0.3103705    -0.6096088
C           5.9394647     1.3406303     0.7757912
H           6.8810795     1.8665882     0.6474929
C           4.7377430     1.9931675     0.5183699
H           4.7163100     3.0283927     0.1943652
C           3.5025511     1.3485894     0.6811584
C           3.5085400     0.0020952     1.0964195
C           4.7123146    -0.6549399     1.3587948
H           4.6724282    -1.6928800     1.6749718
C           5.9261489     0.0137456     1.2110425
H           6.8570880    -0.5045978     1.4244998
C           2.2809592     2.2143755     0.4819149
O           2.3529653     3.2984007    -0.0871766
N           1.1077872     1.7458778     1.0007515
H           0.3181552     2.3756724     0.9923156
H           1.0855735     0.9066372     1.5643249
20
416_C8H9NO2_1-0-10-9 (90,) energy =    -515.4720893
O           2.2890245    -0.6359413     1.2634671
C           1.7962110    -1.2550487     0.0669039
H           0.8992002    -1.8081309     0.3545221
H           2.5391083    -1.9498516    -0.3429017
H           1.5405636    -0.5038756    -0.6893616
C           5.9339106     1.3509588     0.7690657
H           6.8857076     1.8591809     0.6441853
C           4.7442605     2.0463691     0.5786481
H           4.7414482     3.0960817     0.3048044
C           3.4964158     1.4244880     0.7358459
C           3.4791011     0.0611562     1.0877021
C           4.6705889    -0.6403955     1.2832733
H           4.6132954    -1.6879920     1.5638299
C           5.8974186     0.0019920     1.1296564
H           6.8196337    -0.5497203     1.2908315
C           2.2897332     2.3161518     0.5500771
O           2.4048687     3.4486229     0.0925598
N           1.0795732     1.8055048     0.9217433
H           0.2990809     2.4470094     0.9241326
H           1.0270071     0.9336702     1.4316271
20
416_C8H9NO2_1-0-10-9 (105,) energy =    -515.4723909
O           2.2458697    -0.5815719     1.2303246
C           1.8498936    -1.4011086     0.1237094
H           0.9271647    -1.9014083     0.4257896
H           2.6142221    -2.1533369    -0.1032455
H           1.6653686    -0.7900356    -0.7684053
C           5.9337893     1.3344555     0.7734958
H           6.8946342     1.8292187     0.6651222
C           4.7568544     2.0625394     0.6390565
H           4.7717505     3.1252007     0.4216638
C           3.4971705     1.4582514     0.7735403
C           3.4556246     0.0793106     1.0523901
C           4.6354279    -0.6559739     1.1947799
H           4.5651890    -1.7137737     1.4311893
C           5.8729391    -0.0324773     1.0556862
H           6.7849391    -0.6113147     1.1742823
C           2.3079334     2.3797701     0.6132066
O           2.4588458     3.5444026     0.2566739
N           1.0759720     1.8574506     0.8752614
H           0.3008359     2.5051638     0.8780266
H           0.9885708     0.9459150     1.3036682
20
416_C8H9NO2_1-0-10-9 (120,) energy =    -515.4723164
O           2.1982961    -0.5249552     1.1429020
C           1.8912619    -1.5333859     0.1752877
H           0.9011922    -1.9136394     0.4356871
H           2.6111160    -2.3585053     0.2081364
H           1.8715336    -1.1099753    -0.8363428
C           5.9214428     1.3440013     0.7726025
H           6.8881475     1.8315621     0.6867664
C           4.7531113     2.0919409     0.6837013
H           4.7794135     3.1647542     0.5256355
C           3.4853256     1.4984305     0.7865116
C           3.4247505     0.1059831     0.9901142
C           4.5974211    -0.6491957     1.0915307
H           4.5248768    -1.7163318     1.2781081
C           5.8420393    -0.0348261     0.9805370
H           6.7458135    -0.6322228     1.0659028
C           2.3124391     2.4491461     0.6722569
O           2.4924680     3.6386284     0.4266185
N           1.0651739     1.9293775     0.8433950
H           0.2980227     2.5859402     0.8599662
H           0.9438957     0.9792739     1.1648579
20
416_C8H9NO2_1-0-10-9 (135,) energy =    -515.4728105
O           2.1503337    -0.4627962     1.0137492
C           1.9316609    -1.6371000     0.2297350
H           0.8515289    -1.7988907     0.2199970
H           2.4145993    -2.5162679     0.6719853
H           2.2951468    -1.4976503    -0.7945704
C           5.9028360     1.3634204     0.7637748
H           6.8744468     1.8448520     0.7036536
C           4.7411637     2.1259688     0.7152187
H           4.7772634     3.2050966     0.6116068
C           3.4672304     1.5429440     0.7834835
C           3.3903308     0.1408632     0.9191277
C           4.5561066    -0.6313909     0.9671317
H           4.4824767    -1.7081046     1.0795805
C           5.8069451    -0.0230558     0.8902277
H           6.7033209    -0.6359782     0.9339616
C           2.3085949     2.5152792     0.7094020
O           2.5087264     3.7135773     0.5278168
N           1.0528795     2.0107892     0.8498946
H           0.2899996     2.6718959     0.8502660
H           0.9018328     1.0337766     1.0541355
20
416_C8H9NO2_1-0-10-9 (150,) energy =    -515.4740441
O           2.1239261    -0.4178836     0.8790663
C           1.9591550    -1.7110825     0.3022117
H           0.8829328    -1.8541140     0.1853460
H           2.3513834    -2.4986658     0.9568879
H           2.4496307    -1.7706893    -0.6760147
C           5.8998760     1.3704198     0.7832871
H           6.8758337     1.8460628     0.7610276
C           4.7437043     2.1435941     0.7662771
H           4.7885961     3.2265701     0.7256013
C           3.4649027     1.5702445     0.7876697
C           3.3733846     0.1614337     0.8418770
C           4.5333653    -0.6218502     0.8543291
H           4.4574365    -1.7026924     0.8977843
C           5.7897869    -0.0189182     0.8267468
H           6.6797782    -0.6424880     0.8419105
C           2.3179226     2.5581180     0.7555602
O           2.5344230     3.7646107     0.6725879
N           1.0522068     2.0625566     0.8182730
H           0.2982343     2.7334490     0.8375272
H           0.8779792     1.0752724     0.9316300
20
416_C8H9NO2_1-0-10-9 (165,) energy =    -515.4750545
O           2.1054874    -0.3886658     0.7248292
C           1.9678257    -1.7600606     0.3720808
H           0.8955197    -1.9342979     0.2661538
H           2.3618433    -2.4190645     1.1553861
H           2.4719332    -1.9773960    -0.5769929
C           5.8971494     1.3662443     0.8124677
H           6.8757045     1.8362700     0.8368798
C           4.7443096     2.1452888     0.8159945
H           4.7950760     3.2284805     0.8400156
C           3.4628488     1.5807788     0.7813027
C           3.3613762     0.1701799     0.7502648
C           4.5179366    -0.6188148     0.7432759
H           4.4426984    -1.6996231     0.7209296
C           5.7778152    -0.0214508     0.7754013
H           6.6633784    -0.6515087     0.7722111
C           2.3242744     2.5786110     0.7848421
O           2.5516391     3.7860795     0.7992584
N           1.0528609     2.0937780     0.7678770
H           0.3045796     2.7705297     0.7982004
H           0.8630347     1.1034537     0.7874467
20
416_C8H9NO2_1-0-10-9 (180,) energy =    -515.4754266
O           2.1084698    -0.3624826     0.5691372
C           1.9728279    -1.7725042     0.4482490
H           0.8997185    -1.9637716     0.3943087
H           2.3909281    -2.2906984     1.3197389
H           2.4544857    -2.1434812    -0.4645545
C           5.9003076     1.3710015     0.8507988
H           6.8780966     1.8372040     0.9256519
C           4.7480886     2.1508869     0.8728262
H           4.7984917     3.2304422     0.9648111
C           3.4674453     1.5922446     0.7782520
C           3.3653190     0.1857309     0.6588412
C           4.5212571    -0.6042218     0.6364004
H           4.4492844    -1.6812911     0.5451887
C           5.7804951    -0.0116692     0.7317727
H           6.6652113    -0.6426461     0.7122208
C           2.3305807     2.5913920     0.8193106
O           2.5581910     3.7925973     0.9427998
N           1.0599977     2.1167253     0.7086371
H           0.3130461     2.7936747     0.7599459
H           0.8663052     1.1296794     0.6371677
