19
101_C8H7N3S_15-0-7-8 (-165,) energy =    -871.4921633
N           3.0226465    -1.8205962    -1.6104968
H           3.6709812    -2.4673599    -2.0355639
C           4.5476233     0.3569483     1.5584837
H           4.9012968     0.9380675     2.4038407
C           3.1900879     0.2955886     1.2537391
H           2.4630311     0.8294434     1.8637872
N           2.6785706    -0.4021718     0.2330807
C           3.5314897    -1.0667534    -0.5461237
C           4.9250005    -1.0739280    -0.3353379
H           5.5855495    -1.6239548    -1.0009428
C           5.4286902    -0.3542056     0.7382986
H           6.4985756    -0.3405858     0.9282378
C          -0.2036323    -1.0493020    -2.8581395
H          -0.9799737    -0.2949227    -2.9222516
N           0.9454770    -0.7516976    -2.1593687
C           1.7676877    -1.7549957    -2.1863116
S           1.1789656    -3.1759964    -3.0860858
C          -0.2713110    -2.2755288    -3.4451588
H          -1.0541668    -2.6952681    -4.0605556
19
101_C8H7N3S_15-0-7-8 (-150,) energy =    -871.4918290
N           2.9728965    -1.9877826    -1.4848554
H           3.6329718    -2.6072167    -1.9332809
C           4.5416178     0.3841556     1.5207206
H           4.9034718     1.0090252     2.3307510
C           3.1748473     0.2016151     1.3183501
H           2.4511711     0.6838541     1.9736940
N           2.6540204    -0.5602956     0.3507957
C           3.5036472    -1.1626678    -0.4821011
C           4.9019754    -1.0387348    -0.3814704
H           5.5562286    -1.5345558    -1.0939309
C           5.4193337    -0.2608225     0.6457898
H           6.4947917    -0.1475200     0.7529241
C          -0.1169553    -0.9836847    -2.9026977
H          -0.8235237    -0.1691620    -3.0175578
N           1.0225971    -0.7654284    -2.1599401
C           1.7582507    -1.8339773    -2.1301611
S           1.0913803    -3.2226640    -3.0208153
C          -0.2611808    -2.2143359    -3.4660493
H          -1.0485750    -2.5828616    -4.1079187
19
101_C8H7N3S_15-0-7-8 (-135,) energy =    -871.4909675
N           2.9064559    -2.1434807    -1.3523645
H           3.5737305    -2.7550765    -1.8033668
C           4.5240960     0.4201290     1.4704256
H           4.8967464     1.0892300     2.2393237
C           3.1641963     0.1215446     1.3853371
H           2.4595815     0.5581247     2.0914324
N           2.6338918    -0.7037564     0.4780625
C           3.4615345    -1.2510937    -0.4137580
C           4.8440647    -1.0036447    -0.4369941
H           5.4746857    -1.4521770    -1.1999567
C           5.3785397    -0.1651889     0.5348195
H           6.4451799     0.0421748     0.5484285
C          -0.0229862    -0.9287395    -2.9391460
H          -0.6642127    -0.0672354    -3.0892553
N           1.0901114    -0.7901407    -2.1382632
C           1.7460271    -1.9081616    -2.0736763
S           1.0307582    -3.2479439    -2.9967042
C          -0.2235130    -2.1475709    -3.5100746
H          -1.0010295    -2.4623071    -4.1913835
19
101_C8H7N3S_15-0-7-8 (-120,) energy =    -871.4895514
N           2.8412251    -2.2743756    -1.2060810
H           3.5046093    -2.9066137    -1.6362294
C           4.5214128     0.4477340     1.4345760
H           4.9095765     1.1542800     2.1613327
C           3.1876982     0.0395676     1.4832786
H           2.5202272     0.4286080     2.2505114
N           2.6443787    -0.8389709     0.6360088
C           3.4266285    -1.3297492    -0.3267104
C           4.7711233    -0.9663508    -0.4892057
H           5.3573508    -1.3684934    -1.3108316
C           5.3275294    -0.0750718     0.4235506
H           6.3689492     0.2213765     0.3320065
C           0.0957814    -0.8742003    -2.9600676
H          -0.4773205     0.0280048    -3.1430711
N           1.1720115    -0.8085911    -2.1004579
C           1.7466471    -1.9685771    -2.0030645
S           0.9945669    -3.2591900    -2.9631885
C          -0.1553344    -2.0782630    -3.5412988
H          -0.9154491    -2.3427537    -4.2624566
19
101_C8H7N3S_15-0-7-8 (-105,) energy =    -871.4892828
N           3.0340376    -2.1024035    -1.1468746
H           2.8390574    -2.9656805    -0.6473317
C           5.3261444     0.3577930     1.3078443
H           5.8933708     0.9790917     1.9941112
C           4.1206358    -0.2176956     1.7101058
H           3.7390755    -0.0567600     2.7167708
N           3.3694929    -0.9912305     0.9164335
C           3.8094701    -1.2087905    -0.3232281
C           5.0144349    -0.7094577    -0.8187373
H           5.3211405    -0.9518159    -1.8300136
C           5.7817203     0.1016306     0.0148049
H           6.7226766     0.5165139    -0.3357641
C           0.5089753    -0.1604228    -2.7007781
H           0.2181145     0.8420372    -2.9949648
N           1.7039006    -0.3316196    -2.0316746
C           1.8900639    -1.5862815    -1.7491980
S           0.6032067    -2.6758517    -2.2967547
C          -0.2285582    -1.2771342    -2.9390162
H          -1.1855131    -1.3734794    -3.4315366
19
101_C8H7N3S_15-0-7-8 (-90,) energy =    -871.4919606
N           2.9466629    -2.1117235    -1.0044589
H           2.6610905    -2.8864263    -0.4111123
C           5.3799524     0.3352898     1.3119437
H           5.9937520     0.9434099     1.9691363
C           4.2771496    -0.3528876     1.8137821
H           4.0218481    -0.2973865     2.8703899
N           3.4742562    -1.1149570     1.0581772
C           3.7594544    -1.2083617    -0.2407142
C           4.8649205    -0.5989313    -0.8396548
H           5.0583060    -0.7499597    -1.8955493
C           5.6778118     0.2043027    -0.0460042
H           6.5410621     0.7049607    -0.4756053
C           0.6169352    -0.1828433    -2.8577974
H           0.4016046     0.8012251    -3.2593072
N           1.7711253    -0.3579499    -2.1213013
C           1.8644996    -1.5869448    -1.7092951
S           0.5360126    -2.6474630    -2.2097666
C          -0.1798340    -1.2722178    -3.0194252
H          -1.1224960    -1.3593501    -3.5404182
19
101_C8H7N3S_15-0-7-8 (-75,) energy =    -871.4953334
N           2.8615074    -2.0942912    -0.8870518
H           2.5250922    -2.8073701    -0.2455517
C           5.4511592     0.2846341     1.3134910
H           6.1141944     0.8670923     1.9454220
C           4.4472917    -0.4992233     1.8760435
H           4.3180935    -0.5465806     2.9557109
N           3.5902237    -1.2347286     1.1536954
C           3.7182495    -1.2042592    -0.1736675
C           4.7208494    -0.4917479    -0.8416097
H           4.7900929    -0.5379645    -1.9218261
C           5.5864901     0.2821099    -0.0775163
H           6.3704220     0.8604364    -0.5586650
C           0.7292211    -0.2585313    -3.0463556
H           0.5947108     0.6795877    -3.5733537
N           1.8500278    -0.4187202    -2.2569357
C           1.8443147    -1.5896651    -1.6921403
S           0.4560938    -2.6114893    -2.1027842
C          -0.1382176    -1.3035811    -3.1002951
H          -1.0700681    -1.3922333    -3.6400595
19
101_C8H7N3S_15-0-7-8 (-60,) energy =    -871.4987307
N           2.7607475    -2.0339206    -0.7714444
H           2.3919343    -2.7100322    -0.1092575
C           5.5160878     0.2362209     1.3277642
H           6.2275212     0.7846862     1.9368626
C           4.5951993    -0.6253052     1.9179164
H           4.5787603    -0.7682068     2.9968670
N           3.6857489    -1.3240127     1.2256469
C           3.6710864    -1.1774014    -0.1022024
C           4.5790580    -0.3732525    -0.8048917
H           4.5292933    -0.3132950    -1.8845452
C           5.5008770     0.3572822    -0.0645918
H           6.2137683     1.0021266    -0.5712326
C           0.8213028    -0.3324367    -3.2022706
H           0.7670485     0.5410817    -3.8424199
N           1.9123833    -0.4735964    -2.3691689
C           1.8104554    -1.5638529    -1.6670914
S           0.3592343    -2.5283266    -1.9920245
C          -0.1174317    -1.3143556    -3.1568638
H          -1.0393161    -1.4059886    -3.7129224
19
101_C8H7N3S_15-0-7-8 (-45,) energy =    -871.5015086
N           2.6576748    -1.9486501    -0.6660324
H           2.2772504    -2.6029635     0.0097710
C           5.5922640     0.1912000     1.3138204
H           6.3529687     0.7024252     1.8949890
C           4.7348190    -0.7252167     1.9174458
H           4.8172819    -0.9476867     2.9798601
N           3.7719948    -1.3830542     1.2606461
C           3.6336126    -1.1390207    -0.0477062
C           4.4616123    -0.2634789    -0.7666292
H           4.3060112    -0.1162415    -1.8269179
C           5.4437777     0.4179049    -0.0570496
H           6.0988065     1.1128587    -0.5756249
C           0.8862072    -0.4125899    -3.3209160
H           0.8951674     0.3912048    -4.0485846
N           1.9471079    -0.5216856    -2.4453152
C           1.7709614    -1.5286613    -1.6391633
S           0.2768526    -2.4465182    -1.9089931
C          -0.1032045    -1.3371216    -3.2058143
H          -1.0118270    -1.4416204    -3.7810242
19
101_C8H7N3S_15-0-7-8 (-30,) energy =    -871.5034199
N           2.5506674    -1.8473558    -0.5644207
H           2.1686918    -2.5028243     0.1076279
C           5.6572489     0.1392329     1.3007354
H           6.4635162     0.6085625     1.8550373
C           4.8417154    -0.8145163     1.9057728
H           5.0017301    -1.1069016     2.9422152
N           3.8289602    -1.4261498     1.2829840
C           3.5925425    -1.0971402     0.0054951
C           4.3623524    -0.1678618    -0.7122675
H           4.1244649     0.0524722    -1.7438640
C           5.4021598     0.4594671    -0.0348623
H           6.0164830     1.1905087    -0.5538231
C           0.9387281    -0.4857520    -3.4063914
H           0.9963815     0.2595087    -4.1918002
N           1.9593078    -0.5474292    -2.4799538
C           1.7290803    -1.4886954    -1.6088857
S           0.2245880    -2.3942015    -1.8734440
C          -0.0749134    -1.3797025    -3.2655205
H          -0.9598580    -1.5110268    -3.8712803
19
101_C8H7N3S_15-0-7-8 (-15,) energy =    -871.5044909
N           2.4413086    -1.7193433    -0.4706952
H           2.0707008    -2.3896758     0.1916747
C           5.7145831     0.0973812     1.2726821
H           6.5648008     0.5221074     1.7963793
C           4.9239887    -0.8790198     1.8753660
H           5.1471148    -1.2328196     2.8805869
N           3.8630226    -1.4406120     1.2883292
C           3.5483283    -1.0359595     0.0486699
C           4.2778438    -0.0681163    -0.6610826
H           3.9757760     0.2159174    -1.6596906
C           5.3733425     0.5005639    -0.0202310
H           5.9612646     1.2558698    -0.5350685
C           0.9797088    -0.5381262    -3.4674162
H           1.0750318     0.1593347    -4.2920637
N           1.9538396    -0.5407325    -2.4904477
C           1.6837148    -1.4321941    -1.5782141
S           0.1917827    -2.3550963    -1.8603047
C          -0.0398870    -1.4244045    -3.3223093
H          -0.8950164    -1.5930688    -3.9606944
19
101_C8H7N3S_15-0-7-8 (0,) energy =    -871.5048252
N           2.3341592    -1.5887167    -0.3826191
H           1.9817389    -2.2837439     0.2635037
C           5.7607463     0.0422725     1.2434468
H           6.6503085     0.4192114     1.7375037
C           4.9844218    -0.9510296     1.8372314
H           5.2580195    -1.3649028     2.8064089
N           3.8792827    -1.4588227     1.2841852
C           3.5024588    -0.9794007     0.0889004
C           4.2052893     0.0202537    -0.6037719
H           3.8515565     0.3655482    -1.5653931
C           5.3512519     0.5274336    -0.0005159
H           5.9226092     1.3021764    -0.5050615
C           1.0231960    -0.5889847    -3.5111996
H           1.1541615     0.0650586    -4.3659829
N           1.9472532    -0.5298477    -2.4884895
C           1.6407346    -1.3774321    -1.5460283
S           0.1693584    -2.3265522    -1.8505818
C           0.0033198    -1.4753407    -3.3689606
H          -0.8189138    -1.6843640    -4.0378711
19
101_C8H7N3S_15-0-7-8 (15,) energy =    -871.5044909
N           2.2303944    -1.4573796    -0.2947653
H           1.8964457    -2.1759604     0.3357496
C           5.8007232    -0.0240483     1.2060090
H           6.7270580     0.3022262     1.6674930
C           5.0341260    -1.0324157     1.7866579
H           5.3509820    -1.5082360     2.7132793
N           3.8869399    -1.4825517     1.2699547
C           3.4560305    -0.9266920     0.1276471
C           4.1384196     0.1029219    -0.5408590
H           3.7396316     0.5126439    -1.4585904
C           5.3316163     0.5453918     0.0201304
H           5.8910066     1.3382809    -0.4693683
C           1.0662865    -0.6497400    -3.5358315
H           1.2307678    -0.0389202    -4.4164154
N           1.9384605    -0.5242196    -2.4742470
C           1.5985559    -1.3285070    -1.5060347
S           0.1534370    -2.3106093    -1.8289723
C           0.0500989    -1.5406790    -3.3954471
H          -0.7380445    -1.7935470    -4.0897923
19
101_C8H7N3S_15-0-7-8 (30,) energy =    -871.5034199
N           2.1285850    -1.3154076    -0.2134966
H           1.8063520    -2.0486812     0.4075265
C           5.8241388    -0.0854126     1.1671494
H           6.7826051     0.1882533     1.5961452
C           5.0662396    -1.1141209     1.7222619
H           5.4208960    -1.6574479     2.5965165
N           3.8818698    -1.5051244     1.2405795
C           3.4049732    -0.8660715     0.1634064
C           4.0696752     0.1990652    -0.4650894
H           3.6309590     0.6782805    -1.3295037
C           5.3041015     0.5762460     0.0521567
H           5.8532392     1.3917056    -0.4111015
C           1.1207419    -0.7194314    -3.5538828
H           1.3266383    -0.1618927    -4.4607247
N           1.9407180    -0.5268362    -2.4610778
C           1.5577971    -1.2749134    -1.4653366
S           0.1298097    -2.2775869    -1.7953738
C           0.0988862    -1.6031910    -3.4081424
H          -0.6560995    -1.8992362    -4.1220550
19
101_C8H7N3S_15-0-7-8 (45,) energy =    -871.5015086
N           2.0424990    -1.1697565    -0.1550696
H           1.7236802    -1.9042237     0.4682037
C           5.8448395    -0.1429561     1.1092217
H           6.8308398     0.0791250     1.5045223
C           5.0983246    -1.2024216     1.6187747
H           5.4889181    -1.8209197     2.4249475
N           3.8812808    -1.5340086     1.1715394
C           3.3625460    -0.8011426     0.1794162
C           4.0084282     0.3086604    -0.3864280
H           3.5318103     0.8683410    -1.1799607
C           5.2776002     0.6217969     0.0864208
H           5.8153247     1.4677617    -0.3332708
C           1.1987787    -0.8132853    -3.5766139
H           1.4591876    -0.3291494    -4.5112084
N           1.9729389    -0.5579235    -2.4632623
C           1.5285777    -1.2239727    -1.4367012
S           0.0925886    -2.2154993    -1.7567711
C           0.1501728    -1.6624373    -3.4144064
H          -0.5783398    -1.9958004    -4.1393339
19
101_C8H7N3S_15-0-7-8 (60,) energy =    -871.4987307
N           1.9652965    -1.0244714    -0.1110358
H           1.6274931    -1.7416491     0.5239337
C           5.8561686    -0.2097690     1.0506410
H           6.8651732    -0.0428363     1.4139530
C           5.1199934    -1.3085870     1.4855973
H           5.5407907    -2.0124926     2.2013287
N           3.8750260    -1.5770968     1.0702807
C           3.3207350    -0.7381117     0.1906453
C           3.9515084     0.4217412    -0.2802110
H           3.4401173     1.0738675    -0.9765822
C           5.2498425     0.6695905     0.1491770
H           5.7779217     1.5516712    -0.2026598
C           1.2938168    -0.9377362    -3.5905476
H           1.6263776    -0.5570463    -4.5498427
N           2.0341078    -0.6325176    -2.4666028
C           1.5032725    -1.1762977    -1.4109144
S           0.0209840    -2.1003660    -1.7121656
C           0.1864436    -1.7042861    -3.4073148
H          -0.5278939    -2.0598830    -4.1358344
19
101_C8H7N3S_15-0-7-8 (75,) energy =    -871.4953334
N           1.9012812    -0.8740628    -0.0900114
H           1.5375794    -1.5536781     0.5725773
C           5.8605270    -0.2498529     0.9789598
H           6.8878413    -0.1342109     1.3098107
C           5.1374342    -1.3936772     1.3067569
H           5.5873419    -2.1833078     1.9056587
N           3.8699718    -1.6032505     0.9234312
C           3.2832054    -0.6566045     0.1894172
C           3.8983293     0.5524338    -0.1553626
H           3.3521948     1.2948230    -0.7249181
C           5.2195456     0.7425435     0.2322904
H           5.7373352     1.6619644    -0.0266963
C           1.3917959    -1.1069993    -3.5922140
H           1.7985626    -0.8593129    -4.5664213
N           2.1074900    -0.7513128    -2.4669049
C           1.4843777    -1.1346539    -1.3922328
S          -0.0597306    -1.9564037    -1.6757240
C           0.2146590    -1.7562335    -3.3913871
H          -0.4932294    -2.1298570    -4.1172312
19
101_C8H7N3S_15-0-7-8 (90,) energy =    -871.4919606
N           1.8632432    -0.7338146    -0.1052082
H           1.4483087    -1.3445286     0.5938153
C           5.8704513    -0.3028224     0.9101841
H           6.9105317    -0.2407875     1.2148910
C           5.1514768    -1.4825017     1.0919422
H           5.6189813    -2.3528196     1.5487414
N           3.8685357    -1.6295742     0.7331134
C           3.2630369    -0.5821210     0.1732973
C           3.8740316     0.6603897    -0.0139011
H           3.3086499     1.4811253    -0.4403480
C           5.2116169     0.7914999     0.3460068
H           5.7267951     1.7378178     0.2063988
C           1.4993499    -1.3125890    -3.5859658
H           1.9718734    -1.2065004    -4.5562415
N           2.1904735    -0.8976556    -2.4655098
C           1.4859536    -1.1080971    -1.3939398
S          -0.1089460    -1.8271296    -1.6756061
C           0.2625364    -1.8393732    -3.3847384
H          -0.4391337    -2.2332763    -4.1059435
19
101_C8H7N3S_15-0-7-8 (105,) energy =    -871.4892828
N           1.8342476    -0.5755030    -0.1510141
H           1.3403863    -1.0579954     0.5947135
C           5.8643421    -0.3412493     0.8665454
H           6.9105299    -0.3334061     1.1566311
C           5.1417318    -1.5346004     0.8667448
H           5.6153641    -2.4685189     1.1639514
N           3.8515835    -1.6177285     0.5187583
C           3.2415051    -0.4909550     0.1501675
C           3.8587760     0.7603386     0.1435345
H           3.2903342     1.6383407    -0.1418986
C           5.2041394     0.8310108     0.4990428
H           5.7235105     1.7853060     0.4992957
C           1.5518878    -1.4955835    -3.5621093
H           2.0619935    -1.5158656    -4.5189022
N           2.2286637    -1.0062176    -2.4633147
C           1.4767596    -1.0629394    -1.4049908
S          -0.1474236    -1.7203066    -1.6749580
C           0.2794122    -1.9282792    -3.3587937
H          -0.4208628    -2.3514997    -4.0645704
19
101_C8H7N3S_15-0-7-8 (120,) energy =    -871.4895512
N           1.9194187    -0.6535959    -0.2196781
H           1.3252660     0.0714374     0.1626364
C           5.9092566    -0.3661809     0.8777942
H           6.9552662    -0.3538865     1.1672150
C           5.2948239    -1.5565227     0.4862367
H           5.8600949    -2.4868392     0.4639707
N           4.0094504    -1.6528111     0.1348938
C           3.2854789    -0.5323374     0.1373309
C           3.8068496     0.7228626     0.4819849
H           3.1843443     1.6120968     0.4351072
C           5.1393792     0.7968431     0.8769217
H           5.5732389     1.7524237     1.1587940
C           1.5555029    -1.9047406    -3.5176151
H           2.0782274    -2.2027984    -4.4197425
N           2.2949541    -1.4448157    -2.4484243
C           1.5151286    -1.1255877    -1.4608852
S          -0.2163132    -1.3793481    -1.7623016
C           0.2037053    -1.9276523    -3.3666627
H          -0.5577065    -2.2136014    -4.0781963
19
101_C8H7N3S_15-0-7-8 (135,) energy =    -871.4909675
N           1.9673605    -0.5086491    -0.3592380
H           1.3804168     0.2325662    -0.0003453
C           5.9054872    -0.3854614     0.9186468
H           6.9386574    -0.4120870     1.2497347
C           5.3071134    -1.5165015     0.3632933
H           5.8719580    -2.4411374     0.2553409
N           4.0379111    -1.5649769    -0.0517582
C           3.3137784    -0.4492759     0.0519572
C           3.8192728     0.7530917     0.5734431
H           3.1985660     1.6442111     0.6135079
C           5.1334823     0.7722649     1.0268520
H           5.5533025     1.6848520     1.4413904
C           1.4940586    -2.0215813    -3.5313169
H           1.9846526    -2.3986737    -4.4218292
N           2.2722251    -1.4925921    -2.5242248
C           1.5287625    -1.0830171    -1.5424517
S          -0.2160379    -1.3295378    -1.7737583
C           0.1467623    -2.0082549    -3.3406926
H          -0.6397585    -2.3346824    -4.0059770
19
101_C8H7N3S_15-0-7-8 (150,) energy =    -871.4918290
N           2.0430919    -0.3672670    -0.5024824
H           1.4492578     0.3656495    -0.1409887
C           5.9055189    -0.4008561     0.9810979
H           6.9207860    -0.4627106     1.3591946
C           5.3412409    -1.4643526     0.2790233
H           5.9134023    -2.3738226     0.1022917
N           4.0956532    -1.4667072    -0.2072174
C           3.3613262    -0.3689216    -0.0226108
C           3.8319474     0.7692139     0.6585342
H           3.2034808     1.6489963     0.7703302
C           5.1206883     0.7386577     1.1745685
H           5.5128116     1.6000468     1.7085840
C           1.4461365    -2.1252929    -3.5222625
H           1.9010598    -2.5805450    -4.3950012
N           2.2662686    -1.5353532    -2.5856366
C           1.5639075    -1.0355486    -1.6156905
S          -0.1937040    -1.2635840    -1.7742308
C           0.1057245    -2.0699606    -3.2922807
H          -0.7072706    -2.4309921    -3.9058678
19
101_C8H7N3S_15-0-7-8 (165,) energy =    -871.4921633
N           2.1280748    -0.2426400    -0.6555489
H           1.5210583     0.4654159    -0.2688839
C           5.9038076    -0.4183562     1.0245422
H           6.8991997    -0.5100049     1.4466892
C           5.3893018    -1.4081068     0.1907467
H           5.9801700    -2.2913964    -0.0468350
N           4.1715806    -1.3683297    -0.3622782
C           3.4140657    -0.3022919    -0.1053097
C           3.8317016     0.7607465     0.7204510
H           3.1838483     1.6157306     0.8970073
C           5.0930605     0.6885215     1.2933022
H           5.4439771     1.4917026     1.9356997
C           1.3950957    -2.2284732    -3.4979803
H           1.8107682    -2.7753977    -4.3370228
N           2.2604719    -1.5995896    -2.6302681
C           1.6024724    -0.9902205    -1.6926861
S          -0.1689476    -1.1503133    -1.8016461
C           0.0634457    -2.0953914    -3.2493670
H          -0.7772671    -2.4714457    -3.8146493
19
101_C8H7N3S_15-0-7-8 (180,) energy =    -871.4920171
N           3.0508117    -1.6545274    -1.7213985
H           3.6921466    -2.3182150    -2.1310408
C           4.5510685     0.3337248     1.5822604
H           4.9020020     0.8721262     2.4565266
C           3.2186622     0.4077199     1.1861053
H           2.5073178     1.0068666     1.7524841
N           2.7124597    -0.2261142     0.1212078
C           3.5453677    -0.9699046    -0.6047645
C           4.9131701    -1.1222417    -0.2955707
H           5.5588130    -1.7398716    -0.9151564
C           5.4115484    -0.4579439     0.8147382
H           6.4611961    -0.5550888     1.0787527
C          -0.2898347    -1.1277554    -2.7861662
H          -1.1360956    -0.4498035    -2.7743781
N           0.8565263    -0.7589698    -2.1169499
C           1.7669793    -1.6752898    -2.2340510
S           1.2748405    -3.0951324    -3.1962000
C          -0.2694187    -2.3212372    -3.4399024
H          -1.0377715    -2.7821236    -4.0439990
