19
101_C8H7N3S_7-0-15-16 (-165,) energy =    -871.5044801
N           2.4280592    -1.7137677    -0.4767211
H           2.0584038    -2.3897082     0.1802434
C           5.6939020     0.1003349     1.2826728
H           6.5409771     0.5253010     1.8112291
C           4.9410760    -0.9240918     1.8532461
H           5.1908696    -1.3147050     2.8383656
N           3.8864174    -1.4895176     1.2586874
C           3.5412961    -1.0411502     0.0423308
C           4.2294442    -0.0201680    -0.6334766
H           3.9086363     0.2907353    -1.6182010
C           5.3192447     0.5510014     0.0149154
H           5.8762269     1.3457846    -0.4743042
C           1.0435043    -0.6062795    -3.5372637
H           1.1950213     0.0176682    -4.4109344
N           2.0300057    -0.6422129    -2.5737087
C           1.6911228    -1.4425183    -1.6016450
S           0.1031346    -2.2158910    -1.7968992
C          -0.0560898    -1.3748557    -3.3210823
H          -0.9286557    -1.5096229    -3.9437613
19
101_C8H7N3S_7-0-15-16 (-150,) energy =    -871.5034505
N           2.5286040    -1.8330622    -0.5524149
H           2.1507403    -2.5001322     0.1096405
C           5.6391212     0.1461148     1.3116044
H           6.4452199     0.6153957     1.8661388
C           4.9145919    -0.9073042     1.8650975
H           5.1458567    -1.2773760     2.8625700
N           3.9083483    -1.5256491     1.2389548
C           3.5888520    -1.1048434     0.0068269
C           4.2576255    -0.0638111    -0.6572455
H           3.9658163     0.2168205    -1.6602713
C           5.2928518     0.5658443     0.0250160
H           5.8322697     1.3793364    -0.4529718
C           1.0604603    -0.6327393    -3.5401437
H           1.2220853    -0.0507538    -4.4405330
N           2.1025033    -0.7699519    -2.6474229
C           1.7445976    -1.5083298    -1.6344094
S           0.0638155    -2.0806895    -1.6939593
C          -0.1022890    -1.2648981    -3.2291611
H          -1.0212474    -1.3196251    -3.7948518
19
101_C8H7N3S_7-0-15-16 (-135,) energy =    -871.5018150
N           2.6289037    -1.9382259    -0.6218311
H           2.2510327    -2.6018326     0.0447828
C           5.5778573     0.2002721     1.3327509
H           6.3422163     0.7115084     1.9088663
C           4.8872097    -0.8823604     1.8720645
H           5.1034842    -1.2338711     2.8795385
N           3.9306587    -1.5521427     1.2198604
C           3.6327648    -1.1564304    -0.0246329
C           4.2753681    -0.0925621    -0.6775803
H           4.0084297     0.1606456    -1.6952051
C           5.2554256     0.5929797     0.0310945
H           5.7725586     1.4262941    -0.4372773
C           1.0870216    -0.6798438    -3.5504883
H           1.2517455    -0.1555220    -4.4850546
N           2.1673640    -0.9152818    -2.7277742
C           1.8017623    -1.5732728    -1.6639851
S           0.0628814    -1.9265417    -1.5794282
C          -0.1169660    -1.1574645    -3.1340872
H          -1.0717143    -1.1296640    -3.6396284
19
101_C8H7N3S_7-0-15-16 (-120,) energy =    -871.4996961
N           2.7066282    -2.0278660    -0.6879261
H           2.3323660    -2.7002929    -0.0271763
C           5.5112496     0.2326013     1.3451081
H           6.2391424     0.7760318     1.9386966
C           4.8621346    -0.8841855     1.8651399
H           5.0755899    -1.2307963     2.8749005
N           3.9494594    -1.5942183     1.1915506
C           3.6589028    -1.2061357    -0.0559572
C           4.2649082    -0.1108261    -0.6912367
H           4.0117660     0.1327168    -1.7153206
C           5.1970917     0.6171216     0.0385816
H           5.6844523     1.4756751    -0.4159227
C           1.1098914    -0.7367186    -3.5764184
H           1.2699788    -0.2897352    -4.5510801
N           2.2079237    -1.0765000    -2.8176368
C           1.8437166    -1.6272903    -1.6948082
S           0.0841971    -1.7266868    -1.4678528
C          -0.1118481    -1.0260838    -3.0487362
H          -1.0891544    -0.9019999    -3.4936142
19
101_C8H7N3S_7-0-15-16 (-105,) energy =    -871.4973378
N           2.7713503    -2.0997603    -0.7426356
H           2.4045284    -2.7868934    -0.0917126
C           5.4389572     0.2579809     1.3677818
H           6.1334323     0.8267290     1.9774659
C           4.8313290    -0.8909389     1.8667190
H           5.0449064    -1.2378489     2.8763579
N           3.9593424    -1.6331484     1.1728753
C           3.6718002    -1.2460845    -0.0748404
C           4.2384487    -0.1180480    -0.6890709
H           3.9925936     0.1260232    -1.7153977
C           5.1275074     0.6424758     0.0602227
H           5.5839068     1.5258627    -0.3785347
C           1.1209648    -0.8096961    -3.6065858
H           1.2616218    -0.4584418    -4.6225058
N           2.2187809    -1.2477130    -2.9015728
C           1.8772928    -1.6661363    -1.7169931
S           0.1437450    -1.4960073    -1.3615290
C          -0.0830402    -0.8863307    -2.9714940
H          -1.0664666    -0.6560634    -3.3574050
19
101_C8H7N3S_7-0-15-16 (-90,) energy =    -871.4953569
N           2.3400553    -1.7401161    -0.3961192
H           2.4447033    -2.7420464    -0.2628949
C           5.6366877     0.1027572     1.3038295
H           6.5092316     0.5227973     1.7931662
C           5.2547695    -1.2159117     1.5364163
H           5.8279832    -1.8473234     2.2134380
N           4.1939969    -1.7979199     0.9651661
C           3.4580143    -1.0633258     0.1225224
C           3.7507104     0.2757341    -0.1864283
H           3.1321160     0.8366013    -0.8780031
C           4.8597525     0.8541887     0.4181828
H           5.1160363     1.8871133     0.1976976
C           1.0792060    -1.5528054    -3.7123881
H           1.1570814    -1.9621902    -4.7131673
N           1.9318960    -2.0172990    -2.7381131
C           1.7224898    -1.4076024    -1.6063007
S           0.4022214    -0.2321657    -1.6483528
C           0.1993350    -0.5801317    -3.3344120
H          -0.5256446    -0.0538984    -3.9400881
19
101_C8H7N3S_7-0-15-16 (-75,) energy =    -871.4971401
N           2.4355859    -1.7477316    -0.4977303
H           2.5780041    -2.7496504    -0.4066445
C           5.6160644     0.1301678     1.3765865
H           6.4596721     0.5548750     1.9105518
C           5.2724332    -1.2101830     1.5363092
H           5.8480605    -1.8545840     2.1988138
N           4.2475765    -1.7972542     0.9092370
C           3.5093379    -1.0482595     0.0799363
C           3.7661657     0.3119963    -0.1584887
H           3.1536170     0.8867061    -0.8432656
C           4.8392980     0.8960302     0.5042841
H           5.0670693     1.9455344     0.3376723
C           0.9183387    -1.6858630    -3.6924109
H           0.8426100    -2.2074516    -4.6397779
N           1.7862120    -2.1679556    -2.7394350
C           1.7800288    -1.4109665    -1.6784768
S           0.6377463    -0.0592669    -1.7560586
C           0.2289338    -0.5548088    -3.3705850
H          -0.4566414     0.0174931    -3.9799791
19
101_C8H7N3S_7-0-15-16 (-60,) energy =    -871.4988331
N           2.5532521    -1.7848428    -0.6065081
H           2.7025122    -2.7858755    -0.5218493
C           5.5917456     0.1337379     1.4461163
H           6.3997199     0.5656944     2.0271823
C           5.2842067    -1.2213375     1.5496177
H           5.8534646    -1.8701392     2.2133308
N           4.3033087    -1.8172216     0.8653499
C           3.5728462    -1.0642443     0.0302153
C           3.7985857     0.3097881    -0.1563019
H           3.2032446     0.8905871    -0.8503299
C           4.8270220     0.9031019     0.5672071
H           5.0290084     1.9634318     0.4409670
C           0.7864635    -1.7947719    -3.6555878
H           0.5749718    -2.3831826    -4.5413085
N           1.6743527    -2.2925581    -2.7297365
C           1.8413076    -1.4509831    -1.7466189
S           0.8554678     0.0171771    -1.8684724
C           0.2546207    -0.5687038    -3.3938991
H          -0.4100677     0.0291034    -4.0015681
19
101_C8H7N3S_7-0-15-16 (-45,) energy =    -871.5000852
N           2.6667964    -1.8094251    -0.7212269
H           2.8071905    -2.8108001    -0.6326697
C           5.5533424     0.1290034     1.5170083
H           6.3221335     0.5642619     2.1466830
C           5.2701154    -1.2345655     1.5748460
H           5.8211990    -1.8865854     2.2506376
N           4.3359703    -1.8337748     0.8322687
C           3.6287393    -1.0769673    -0.0216337
C           3.8381590     0.3047194    -0.1695737
H           3.2747949     0.8905607    -0.8850494
C           4.8173660     0.9014629     0.6173539
H           5.0043519     1.9676891     0.5216854
C           0.6651590    -1.8287106    -3.6104813
H           0.3368300    -2.4471738    -4.4383273
N           1.5767277    -2.3487066    -2.7211666
C           1.8857657    -1.4692973    -1.8061108
S           1.0276025     0.0745251    -1.9569514
C           0.2575453    -0.5487443    -3.3917679
H          -0.4019454     0.0693134    -3.9843365
19
101_C8H7N3S_7-0-15-16 (-30,) energy =    -871.5008559
N           2.7750189    -1.8237452    -0.8349270
H           2.8974096    -2.8255668    -0.7305877
C           5.5086540     0.1256654     1.5743551
H           6.2379411     0.5624168     2.2483839
C           5.2484126    -1.2439763     1.5930818
H           5.7793590    -1.8991247     2.2818570
N           4.3610391    -1.8446282     0.7973844
C           3.6795464    -1.0842699    -0.0758908
C           3.8749270     0.3029198    -0.1916744
H           3.3451352     0.8933266    -0.9282365
C           4.8038373     0.9012909     0.6533144
H           4.9773420     1.9717903     0.5839277
C           0.5658119    -1.8488553    -3.5616351
H           0.1388962    -2.4866809    -4.3275908
N           1.4972785    -2.3849978    -2.7037898
C           1.9236395    -1.4820343    -1.8600528
S           1.1728688     0.1115433    -2.0520710
C           0.2604077    -0.5338871    -3.3928543
H          -0.4003876     0.0964048    -3.9706440
19
101_C8H7N3S_7-0-15-16 (-15,) energy =    -871.5012094
N           2.8823636    -1.8188850    -0.9380471
H           2.9841647    -2.8200309    -0.8087372
C           5.4651153     0.1460736     1.6183658
H           6.1564536     0.5854712     2.3296024
C           5.2317361    -1.2287629     1.6048133
H           5.7460726    -1.8849447     2.3051314
N           4.3900640    -1.8328433     0.7641262
C           3.7298275    -1.0718070    -0.1259275
C           3.9063016     0.3200773    -0.2145623
H           3.4032997     0.9128686    -0.9674709
C           4.7858439     0.9224626     0.6793778
H           4.9421287     1.9968069     0.6324553
C           0.4891667    -1.8688530    -3.5004689
H          -0.0206778    -2.5241267    -4.1980210
N           1.4378874    -2.4089153    -2.6649788
C           1.9610361    -1.4847332    -1.9010923
S           1.2981467     0.1372097    -2.1540283
C           0.2682383    -0.5307256    -3.3969100
H          -0.4002529     0.1022409    -3.9625841
19
101_C8H7N3S_7-0-15-16 (0,) energy =    -871.5012134
N           2.9491891    -1.8090470    -1.0093345
H           3.0347046    -2.8094676    -0.8613792
C           5.4427629     0.1365736     1.6493185
H           6.1140261     0.5692699     2.3835182
C           5.2417701    -1.2421324     1.5888712
H           5.7610204    -1.9082887     2.2759948
N           4.4261223    -1.8378323     0.7174614
C           3.7599620    -1.0648461    -0.1582057
C           3.9043829     0.3330347    -0.1991058
H           3.3960509     0.9417895    -0.9350496
C           4.7569034     0.9263666     0.7267345
H           4.8864573     2.0052122     0.7175910
C           0.4173697    -1.8865821    -3.4335600
H          -0.1756038    -2.5576477    -4.0450894
N           1.3548811    -2.4260322    -2.5854095
C           1.9790828    -1.4835773    -1.9262642
S           1.4427530     0.1575122    -2.3112682
C           0.3048979    -0.5313241    -3.4445903
H          -0.3485118     0.1012018    -4.0279824
19
101_C8H7N3S_7-0-15-16 (15,) energy =    -871.5012101
N           2.8674606    -1.8239988    -0.9144275
H           2.9237387    -2.8221433    -0.7413538
C           5.5011074     0.1315758     1.5968517
H           6.2271408     0.5673015     2.2750166
C           5.3965474    -1.2517063     1.4542187
H           6.0388317    -1.9178446     2.0280419
N           4.5330645    -1.8524689     0.6334362
C           3.7117945    -1.0787828    -0.0972889
C           3.7163824     0.3246421    -0.0148698
H           3.0166068     0.9322617    -0.5738127
C           4.6321687     0.9225337     0.8449998
H           4.6569078     2.0056425     0.9292084
C           0.3546365    -1.8614031    -3.3603779
H          -0.3753108    -2.5011105    -3.8439413
N           1.1330795    -2.3921208    -2.3591651
C           1.9471863    -1.4883571    -1.8779834
S           1.8174031     0.1000074    -2.6494465
C           0.5534360    -0.5507201    -3.6645926
H           0.0444228     0.0729604    -4.3853205
19
101_C8H7N3S_7-0-15-16 (30,) energy =    -871.5008559
N           2.1041945    -0.9696109    -0.2797725
H           1.4334008    -0.9617912     0.4814679
C           5.8923322    -0.3628710     1.2562867
H           6.8544524    -0.2226019     1.7375096
C           4.7442315    -0.6023466     2.0102831
H           4.7945833    -0.6458466     3.0970706
N           3.5324911    -0.7899821     1.4831905
C           3.4112446    -0.7426322     0.1459383
C           4.4986094    -0.4908440    -0.7085293
H           4.3749241    -0.4172596    -1.7814086
C           5.7496979    -0.3027111    -0.1303326
H           6.6078029    -0.1036385    -0.7666602
C          -0.1539808    -0.9319640    -2.9659210
H          -1.1975032    -0.7847809    -3.2211942
N           0.2309583    -0.7725558    -1.6554294
C           1.5173867    -0.9645184    -1.5240099
S           2.3516300    -1.3885024    -3.0287665
C           0.8224444    -1.2486846    -3.8587712
H           0.7572440    -1.3764452    -4.9298383
19
101_C8H7N3S_7-0-15-16 (45,) energy =    -871.5000852
N           2.1294140    -1.1251702    -0.2766108
H           1.4581711    -1.0934146     0.4841317
C           5.8838324    -0.2918221     1.2430000
H           6.8381938    -0.0928780     1.7190203
C           4.7509179    -0.5738207     2.0044882
H           4.8051314    -0.5934741     3.0917747
N           3.5484167    -0.8313189     1.4841177
C           3.4239702    -0.8162114     0.1475672
C           4.4965359    -0.5332125    -0.7151695
H           4.3666314    -0.4990155    -1.7896229
C           5.7371606    -0.2693551    -0.1447015
H           6.5841364    -0.0432241    -0.7869252
C          -0.1236805    -0.8239181    -2.9575672
H          -1.1443409    -0.5609697    -3.2119997
N           0.2815926    -0.6995813    -1.6489314
C           1.5392508    -1.0278317    -1.5195514
S           2.3133749    -1.5617540    -3.0222969
C           0.8104190    -1.2518771    -3.8500957
H           0.7289107    -1.3694497    -4.9213534
19
101_C8H7N3S_7-0-15-16 (60,) energy =    -871.4988331
N           2.1609459    -1.2852799    -0.2820673
H           1.4915150    -1.2442049     0.4806169
C           5.8671362    -0.2169416     1.2177552
H           6.8100856     0.0431117     1.6870795
C           4.7540273    -0.5466127     1.9883575
H           4.8118453    -0.5445011     3.0756320
N           3.5648244    -0.8772352     1.4765504
C           3.4376552    -0.8920665     0.1417814
C           4.4914544    -0.5720530    -0.7304632
H           4.3557797    -0.5762614    -1.8051762
C           5.7171195    -0.2299073    -0.1702403
H           6.5501702     0.0271526    -0.8190713
C          -0.0722126    -0.7010792    -2.9448172
H          -1.0525589    -0.3106668    -3.1937281
N           0.3591093    -0.6178425    -1.6408341
C           1.5655891    -1.0996446    -1.5187038
S           2.2455242    -1.7518472    -3.0202173
C           0.7928260    -1.2531576    -3.8400814
H           0.6861056    -1.3654979    -4.9098646
19
101_C8H7N3S_7-0-15-16 (75,) energy =    -871.4971401
N           2.1975180    -1.4445157    -0.3010506
H           1.5279216    -1.4128239     0.4625312
C           5.8391681    -0.1539426     1.1915366
H           6.7670221     0.1634425     1.6557810
C           4.7513008    -0.5469706     1.9675573
H           4.8144214    -0.5390990     3.0545097
N           3.5801649    -0.9477424     1.4615674
C           3.4497763    -0.9723575     0.1288552
C           4.4792467    -0.5955714    -0.7493962
H           4.3367165    -0.6190466    -1.8234357
C           5.6850030    -0.1804605    -0.1963944
H           6.4996811     0.1219884    -0.8490219
C           0.0453144    -0.5738979    -2.9697388
H          -0.8608122    -0.0383111    -3.2293058
N           0.4943981    -0.5230576    -1.6699236
C           1.6063236    -1.1894932    -1.5350608
S           2.1569429    -1.9927009    -3.0147892
C           0.8050565    -1.2875355    -3.8481737
H           0.6695806    -1.4153660    -4.9131664
19
101_C8H7N3S_7-0-15-16 (90,) energy =    -871.4953569
N           2.2165361    -1.5827252    -0.2943289
H           1.5531152    -1.6069926     0.4749879
C           5.7897638    -0.0922033     1.1767861
H           6.7031014     0.2758320     1.6323969
C           4.7399631    -0.5607523     1.9624234
H           4.8194029    -0.5637407     3.0483762
N           3.5864975    -1.0246798     1.4678658
C           3.4392283    -1.0393336     0.1376612
C           4.4312225    -0.5903703    -0.7503605
H           4.2722398    -0.6144395    -1.8225789
C           5.6177363    -0.1106265    -0.2098339
H           6.4039277     0.2478067    -0.8691192
C           0.2013272    -0.4346595    -2.9856748
H          -0.5844629     0.2554840    -3.2710791
N           0.6686332    -0.4087452    -1.6922299
C           1.6223345    -1.2797616    -1.5238121
S           1.9846979    -2.2461632    -2.9595311
C           0.7919818    -1.3338972    -3.8256940
H           0.6073237    -1.4953519    -4.8788769
19
101_C8H7N3S_7-0-15-16 (105,) energy =    -871.4973378
N           1.9364141    -1.0367692    -0.0516304
H           1.5884326    -1.7479954     0.5835682
C           5.8631642    -0.2821515     1.0161376
H           6.8809331    -0.1250289     1.3581076
C           4.9883100    -1.0910050     1.7362441
H           5.3113328    -1.5774023     2.6551601
N           3.7246728    -1.3345636     1.3667105
C           3.2840818    -0.7524712     0.2458440
C           4.0689093     0.0979512    -0.5489286
H           3.6455830     0.5680995    -1.4281996
C           5.3811714     0.3196515    -0.1500803
H           6.0219499     0.9684177    -0.7414233
C           0.8430333    -0.4552426    -3.3767806
H           0.6601772     0.3079788    -4.1246537
N           1.2926922    -0.0683339    -2.1349225
C           1.4289606    -1.0950870    -1.3461698
S           1.0530525    -2.6531616    -2.1153142
C           0.6264248    -1.7888417    -3.5596357
H           0.2218406    -2.2953221    -4.4250068
19
101_C8H7N3S_7-0-15-16 (120,) energy =    -871.4996961
N           1.9936093    -1.1200785    -0.0979038
H           1.6589343    -1.8430038     0.5299431
C           5.8608235    -0.2125247     1.0552834
H           6.8642368    -0.0199044     1.4207295
C           5.0048850    -1.0661311     1.7464574
H           5.3281491    -1.5526836     2.6651987
N           3.7600954    -1.3533035     1.3478653
C           3.3192061    -0.7736566     0.2249526
C           4.0838426     0.1198366    -0.5415500
H           3.6583543     0.5829226    -1.4228289
C           5.3783026     0.3865228    -0.1117119
H           6.0043055     1.0686729    -0.6809222
C           0.9099622    -0.4815546    -3.4112114
H           0.8291613     0.2722175    -4.1862511
N           1.4622860    -0.1268341    -2.2004319
C           1.4567207    -1.1343281    -1.3747894
S           0.7986382    -2.6357792    -2.0602617
C           0.4687348    -1.7645208    -3.5301402
H          -0.0447367    -2.2307783    -4.3592309
19
101_C8H7N3S_7-0-15-16 (135,) energy =    -871.5018150
N           2.0650285    -1.2202914    -0.1553426
H           1.7386528    -1.9495618     0.4684986
C           5.8560598    -0.1540061     1.1020455
H           6.8403408     0.0771949     1.4960674
C           5.0196694    -1.0512146     1.7619046
H           5.3391315    -1.5342416     2.6838412
N           3.7992482    -1.3850058     1.3281717
C           3.3628419    -0.8127709     0.1984861
C           4.1088767     0.1195513    -0.5399600
H           3.6886158     0.5680956    -1.4305324
C           5.3790092     0.4357357    -0.0714613
H           5.9903939     1.1491565    -0.6177679
C           0.9577125    -0.5145788    -3.4437757
H           0.9583868     0.2187199    -4.2423582
N           1.6154180    -0.2121775    -2.2709985
C           1.4971767    -1.1852092    -1.4122247
S           0.5804254    -2.5849830    -2.0087608
C           0.3227918    -1.7166352    -3.4988566
H          -0.2862906    -2.1287488    -4.2907344
19
101_C8H7N3S_7-0-15-16 (150,) energy =    -871.5034504
N           2.1414648    -1.3403094    -0.2322399
H           1.8096965    -2.0664606     0.3912276
C           5.8279352    -0.0942354     1.1549724
H           6.7854972     0.1822032     1.5841353
C           5.0076631    -1.0257385     1.7877837
H           5.3135898    -1.4907917     2.7234779
N           3.8203643    -1.4136414     1.3115694
C           3.4011015    -0.8659477     0.1619785
C           4.1344690     0.0928724    -0.5555370
H           3.7327427     0.5130907    -1.4676723
C           5.3700443     0.4675917    -0.0392124
H           5.9702120     1.2037091    -0.5675581
C           0.9882760    -0.5402314    -3.4808446
H           1.0488865     0.1703584    -4.2974955
N           1.7416007    -0.3101785    -2.3489340
C           1.5395353    -1.2468445    -1.4650021
S           0.4053835    -2.5145970    -1.9775156
C           0.1982766    -1.6466737    -3.4787640
H          -0.4903434    -1.9944463    -4.2352993
19
101_C8H7N3S_7-0-15-16 (165,) energy =    -871.5044801
N           2.2311983    -1.4630655    -0.3142485
H           1.8936942    -2.1800193     0.3159963
C           5.7998934    -0.0347379     1.1945960
H           6.7266222     0.2888196     1.6571884
C           4.9993792    -0.9985691     1.8044734
H           5.2908025    -1.4422544     2.7550781
N           3.8494219    -1.4425962     1.2887623
C           3.4490119    -0.9236503     0.1182782
C           4.1685692     0.0574472    -0.5834041
H           3.7880102     0.4447275    -1.5185274
C           5.3637923     0.4942710    -0.0222176
H           5.9508219     1.2508849    -0.5361947
C           1.0038000    -0.5550519    -3.5047094
H           1.1065823     0.1313133    -4.3377179
N           1.8485990    -0.4107825    -2.4237813
C           1.5853505    -1.3076025    -1.5145897
S           0.2645525    -2.4210349    -1.9313790
C           0.0857774    -1.5548061    -3.4391937
H          -0.6746726    -1.8321193    -4.1547906
19
101_C8H7N3S_7-0-15-16 (180,) energy =    -871.5048252
N           2.3327738    -1.5966923    -0.3801087
H           1.9797184    -2.2930145     0.2642560
C           5.7567729     0.0317961     1.2536719
H           6.6456471     0.4076222     1.7498566
C           4.9797535    -0.9625628     1.8447898
H           5.2516096    -1.3784537     2.8136405
N           3.8753416    -1.4692837     1.2893305
C           3.5000529    -0.9877471     0.0943875
C           4.2036953     0.0132834    -0.5954861
H           3.8505411     0.3608678    -1.5565211
C           5.3488741     0.5194289     0.0101036
H           5.9208706     1.2951450    -0.4922895
C           1.0238111    -0.5888060    -3.5069222
H           1.1543585     0.0689722    -4.3589326
N           1.9461035    -0.5307980    -2.4825759
C           1.6404597    -1.3828224    -1.5437456
S           0.1725644    -2.3351301    -1.8542583
C           0.0062078    -1.4785657    -3.3695043
H          -0.8146938    -1.6868809    -4.0403053
