22
091_C10H10N2_18-0-9-10 (-165,) energy =    -496.5772467
C           3.0773156    -1.0597811    -1.8815415
H           3.0988572    -2.1397527    -1.6928378
H           3.5198731    -0.9124214    -2.8731479
C           5.5084376     0.9466740     1.0878123
H           6.1280435     1.4417237     1.8305394
C           4.1183721     1.0338041     1.1607012
H           3.6494199     1.5988495     1.9618106
C           3.3194424     0.3998586     0.2059579
H           2.2380540     0.4756215     0.2683790
C           3.9057026    -0.3269471    -0.8340793
C           5.3025940    -0.4064197    -0.9048834
H           5.7702361    -0.9630734    -1.7150521
C           6.0999532     0.2227988     0.0499112
H           7.1822520     0.1537456    -0.0203309
C          -0.4788841    -0.4755176    -1.5958547
H          -1.5019898    -0.6133082    -1.2722663
C           0.6186935    -1.2342778    -1.2737824
H           0.7506752    -2.1078340    -0.6521569
N           1.6797876    -0.6610506    -1.9509729
C           1.1661779     0.4096807    -2.6322722
H           1.7912912     1.0449685    -3.2468018
N          -0.1287521     0.5497624    -2.4465169
22
091_C10H10N2_18-0-9-10 (-150,) energy =    -496.5772453
C           3.0439488    -1.1819426    -1.7589514
H           2.9709685    -2.2262314    -1.4332849
H           3.5251473    -1.1975190    -2.7431464
C           5.5215232     1.0092146     1.0323756
H           6.1502378     1.5504646     1.7340880
C           4.1415839     0.9418606     1.2333669
H           3.6919736     1.4317215     2.0929164
C           3.3314431     0.2497403     0.3324158
H           2.2572955     0.2082562     0.4898887
C           3.8932268    -0.3808961    -0.7834179
C           5.2763282    -0.3030190    -0.9829068
H           5.7228266    -0.7802679    -1.8530935
C           6.0879666     0.3839619    -0.0793641
H           7.1598615     0.4381239    -0.2499328
C          -0.4874202    -0.3936187    -1.7360862
H          -1.5392398    -0.4778740    -1.4973219
C           0.5374309    -1.2174172    -1.3421545
H           0.5696497    -2.1105234    -0.7351943
N           1.6801939    -0.6932653    -1.9188913
C           1.2832960     0.4150488    -2.6171697
H           1.9900353     1.0268262    -3.1630258
N          -0.0132561     0.6239430    -2.5337623
22
091_C10H10N2_18-0-9-10 (-135,) energy =    -496.5771665
C           3.0014186    -1.2823019    -1.6155293
H           2.8371669    -2.2711894    -1.1732513
H           3.5057259    -1.4473121    -2.5742948
C           5.5398077     1.0714808     0.9778411
H           6.1808743     1.6564266     1.6316841
C           4.2004944     0.8589217     1.3155572
H           3.7970354     1.2787715     2.2330687
C           3.3757182     0.1104769     0.4774913
H           2.3318746    -0.0430622     0.7389508
C           3.8788785    -0.4334737    -0.7114449
C           5.2179854    -0.2099705    -1.0463838
H           5.6166090    -0.6203660    -1.9718540
C           6.0473165     0.5353160    -0.2052978
H           7.0852751     0.7022097    -0.4803626
C          -0.4820052    -0.3291717    -1.8875429
H          -1.5544190    -0.3739497    -1.7520162
C           0.4663167    -1.2051484    -1.4216599
H           0.4037161    -2.1142028    -0.8413230
N           1.6799130    -0.7136006    -1.8671625
C           1.3972529     0.4270261    -2.5687374
H           2.1770112     1.0240025    -3.0236493
N           0.1076197     0.6880550    -2.6043054
22
091_C10H10N2_18-0-9-10 (-120,) energy =    -496.5769913
C           2.9622537    -1.3593096    -1.4180005
H           2.7060766    -2.2625860    -0.8543421
H           3.4806959    -1.6858366    -2.3274704
C           5.5718101     1.1667501     0.9260771
H           6.2284965     1.7987598     1.5176575
C           4.3003042     0.8357126     1.4040883
H           3.9665542     1.2099637     2.3680919
C           3.4573728     0.0252477     0.6469905
H           2.4659038    -0.2233122     1.0178102
C           3.8726143    -0.4648798    -0.5990252
C           5.1433360    -0.1243666    -1.0720758
H           5.4737427    -0.4963252    -2.0394716
C           5.9920679     0.6855261    -0.3130656
H           6.9770650     0.9416493    -0.6937136
C          -0.4305151    -0.3476029    -2.1847874
H          -1.5078671    -0.4092987    -2.2627061
C           0.4326313    -1.2741191    -1.6560737
H           0.2827616    -2.2491693    -1.2157765
N           1.6948693    -0.7234147    -1.7818320
C           1.5237515     0.4955167    -2.3811104
H           2.3594232     1.1491903    -2.5920282
N           0.2584288     0.7564151    -2.6348588
22
091_C10H10N2_18-0-9-10 (-105,) energy =    -496.5766621
C           2.8448575    -1.4426546    -1.2424290
H           2.5009701    -2.2436592    -0.5803344
H           3.3427776    -1.9186478    -2.0962089
C           5.6133359     1.1532054     0.8234150
H           6.3079007     1.8074295     1.3432213
C           4.4343842     0.7420917     1.4516351
H           4.2103390     1.0760100     2.4610701
C           3.5439985    -0.0980570     0.7859387
H           2.6244764    -0.4112915     1.2748688
C           3.8199287    -0.5403416    -0.5149701
C           5.0008926    -0.1217393    -1.1368612
H           5.2250158    -0.4606786    -2.1459296
C           5.8955035     0.7201903    -0.4718977
H           6.8099914     1.0356737    -0.9666621
C          -0.4079784    -0.2975838    -2.3493994
H          -1.4703594    -0.3275324    -2.5524366
C           0.3655736    -1.2615854    -1.7532877
H           0.1414609    -2.2435341    -1.3625931
N           1.6454859    -0.7402984    -1.7103398
C           1.5748236     0.4990113    -2.2880219
H           2.4428959     1.1370604    -2.3788480
N           0.3539244     0.8004727    -2.6793969
22
091_C10H10N2_18-0-9-10 (-90,) energy =    -496.5760500
C           2.7542292    -1.4554783    -1.0539397
H           2.3348129    -2.1312493    -0.3017080
H           3.2355996    -2.0775939    -1.8191992
C           5.6567281     1.1869337     0.7505509
H           6.3853031     1.8534454     1.2039121
C           4.5792947     0.7120924     1.5014366
H           4.4664596     1.0081105     2.5407712
C           3.6455697    -0.1447597     0.9189659
H           2.8051735    -0.5092180     1.5051523
C           3.7787500    -0.5416892    -0.4173545
C           4.8621374    -0.0596230    -1.1624286
H           4.9772774    -0.3644841    -2.2002330
C           5.7966095     0.8001642    -0.5832919
H           6.6338564     1.1641543    -1.1724224
C          -0.3184504    -0.3136650    -2.5907325
H          -1.3340157    -0.3621354    -2.9612630
C           0.3936884    -1.2948803    -1.9478180
H           0.1531981    -2.3100374    -1.6670272
N           1.6279654    -0.7388478    -1.6670080
C           1.5943054     0.5384507    -2.1598834
H           2.4359319     1.2095804    -2.0688845
N           0.4366892     0.8295096    -2.7177397
22
091_C10H10N2_18-0-9-10 (-75,) energy =    -496.5766634
C           2.5777047    -1.3847305    -0.7011556
H           2.0722585    -1.7964683     0.1810757
H           2.9683437    -2.2308325    -1.2753451
C           5.8187522     1.1902409     0.5382970
H           6.6358864     1.8350144     0.8500018
C           4.8181694     0.8408798     1.4448081
H           4.8515587     1.2113897     2.4657062
C           3.7702574     0.0098878     1.0416156
H           2.9939072    -0.2649673     1.7522740
C           3.7099349    -0.4763494    -0.2685607
C           4.7226537    -0.1234362    -1.1708241
H           4.6843375    -0.4957056    -2.1919281
C           5.7691086     0.7057202    -0.7718209
H           6.5482603     0.9717808    -1.4809128
C           0.0290912    -0.3336587    -3.0502237
H          -0.6755311    -0.4018471    -3.8685378
C           0.9054418    -1.2926513    -2.6080633
H           1.1065405    -2.3051189    -2.9267591
N           1.5918071    -0.7152278    -1.5559267
C           1.0879220     0.5501883    -1.4170583
H           1.4566348     1.2320617    -0.6633844
N           0.1502694     0.8161050    -2.3029185
22
091_C10H10N2_18-0-9-10 (-60,) energy =    -496.5770067
C           2.4611389    -1.2985083    -0.5556316
H           1.9038520    -1.5552270     0.3532428
H           2.8023194    -2.2403805    -0.9980308
C           5.8710387     1.1546807     0.4641513
H           6.7322398     1.7656644     0.7204487
C           4.9794996     0.7488221     1.4561546
H           5.1408873     1.0426803     2.4897483
C           3.8718839    -0.0346125     1.1217329
H           3.1775259    -0.3481598     1.8982249
C           3.6465861    -0.4211198    -0.2027326
C           4.5487928    -0.0097914    -1.1936889
H           4.3770260    -0.2977028    -2.2280475
C           5.6518313     0.7742653    -0.8632849
H           6.3428667     1.0885774    -1.6407366
C           0.1938249    -0.3624143    -3.2212706
H          -0.3925601    -0.4557004    -4.1257189
C           1.0418805    -1.2865873    -2.6647782
H           1.3261697    -2.2882317    -2.9527344
N           1.5528335    -0.6880328    -1.5276843
C           0.9836931     0.5551815    -1.4595763
H           1.2186947     1.2470371    -0.6618814
N           0.1634248     0.7866379    -2.4631187
22
091_C10H10N2_18-0-9-10 (-45,) energy =    -496.5771849
C           2.3229072    -1.2002510    -0.4097492
H           1.7254224    -1.2725022     0.5059376
H           2.5913121    -2.2249141    -0.6902797
C           5.9224479     1.0672422     0.3730651
H           6.8310285     1.6288985     0.5722565
C           5.1325990     0.6133955     1.4291653
H           5.4207094     0.8216361     2.4560587
C           3.9618909    -0.1020078     1.1684966
H           3.3453807    -0.4479897     1.9955875
C           3.5721447    -0.3765360    -0.1462031
C           4.3701735     0.0829281    -1.2017757
H           4.0688492    -0.1119519    -2.2277677
C           5.5362011     0.8018321    -0.9433358
H           6.1441360     1.1570869    -1.7710319
C           0.4378508    -0.3916908    -3.3942248
H           0.0419605    -0.4913089    -4.3961116
C           1.2785564    -1.2481686    -2.7283163
H           1.7338490    -2.1892020    -3.0008217
N           1.4806303    -0.6805261    -1.4833923
C           0.7591652     0.4824377    -1.4706681
H           0.7485385     1.1368619    -0.6086818
N           0.1173420     0.6876058    -2.6013568
22
091_C10H10N2_18-0-9-10 (-30,) energy =    -496.5772435
C           2.2202813    -1.0924898    -0.3079076
H           1.5961225    -1.0121611     0.5889721
H           2.4258837    -2.1603997    -0.4470843
C           5.9544536     1.0001731     0.3318118
H           6.8956308     1.5167057     0.4991310
C           5.2546535     0.4517535     1.4078531
H           5.6460000     0.5414712     2.4177104
C           4.0422413    -0.2034484     1.1905461
H           3.4966395    -0.6208218     2.0346620
C           3.5186075    -0.3261514    -0.1018040
C           4.2243664     0.2271921    -1.1757382
H           3.8215244     0.1501102    -2.1816785
C           5.4344384     0.8878033    -0.9587507
H           5.9697643     1.3178275    -1.8010501
C           0.5601937    -0.4676923    -3.4611847
H           0.2604984    -0.6123070    -4.4906054
C           1.3750180    -1.2660406    -2.6977169
H           1.8973920    -2.1895320    -2.9010552
N           1.4344045    -0.6595284    -1.4559895
C           0.6627276     0.4676768    -1.5427307
H           0.5412344     1.1401911    -0.7032537
N           0.1179788     0.6134454    -2.7316552
22
091_C10H10N2_18-0-9-10 (-15,) energy =    -496.5772501
C           2.1379654    -0.9666478    -0.2342280
H           1.4953810    -0.7316881     0.6217959
H           2.2717161    -2.0550000    -0.2282989
C           5.9899714     0.9386530     0.2996157
H           6.9587112     1.4092261     0.4435581
C           5.3577225     0.2930844     1.3648990
H           5.8309518     0.2605949     2.3426980
C           4.1123895    -0.3047160     1.1782693
H           3.6225756    -0.8005187     2.0144645
C           3.4838871    -0.2713915    -0.0734638
C           4.1208613     0.3767898    -1.1353020
H           3.6424401     0.4157223    -2.1092498
C           5.3673455     0.9792340    -0.9476366
H           5.8494168     1.4830442    -1.7811552
C           0.6768646    -0.5558025    -3.5150858
H           0.4588256    -0.7564743    -4.5555773
C           1.4688429    -1.2835743    -2.6623173
H           2.0505387    -2.1848722    -2.7896755
N           1.4093986    -0.6265344    -1.4466519
C           0.5962206     0.4584400    -1.6366964
H           0.3815071     1.1545804    -0.8358786
N           0.1334906     0.5309756    -2.8661313
22
091_C10H10N2_18-0-9-10 (0,) energy =    -496.5773562
C           2.0654858    -0.8410477    -0.1630853
H           1.4183079    -0.4545311     0.6329931
H           2.1237151    -1.9254040    -0.0118198
C           6.0168513     0.8795046     0.2681060
H           7.0086200     1.3067156     0.3885356
C           5.4418300     0.1360473     1.3020993
H           5.9842253    -0.0177010     2.2312262
C           4.1698089    -0.4105919     1.1443814
H           3.7282803    -0.9889140     1.9541688
C           3.4533837    -0.2227376    -0.0454344
C           4.0334823     0.5207795    -1.0761258
H           3.4911290     0.6724607    -2.0041409
C           5.3094726     1.0688584    -0.9182053
H           5.7480064     1.6455629    -1.7281800
C           0.7681297    -0.6682915    -3.5309588
H           0.6195105    -0.9291703    -4.5703486
C           1.5495363    -1.3100633    -2.6028203
H           2.1882335    -2.1795146    -2.6559581
N           1.3869333    -0.6018227    -1.4261120
C           0.5287555     0.4261252    -1.7127404
H           0.2310532     1.1433754    -0.9582924
N           0.1318652     0.4156598    -2.9667585
22
091_C10H10N2_18-0-9-10 (15,) energy =    -496.5776246
C           1.9948007    -0.7049154    -0.1001070
H           1.3548552    -0.1783499     0.6183733
H           1.9777919    -1.7621077     0.1894496
C           6.0338051     0.8189202     0.2347874
H           7.0466623     1.2001899     0.3316031
C           5.5033486    -0.0217523     1.2162072
H           6.1021639    -0.2996214     2.0795064
C           4.2057278    -0.5141845     1.0861595
H           3.8007566    -1.1741329     1.8512705
C           3.4179276    -0.1684538    -0.0194452
C           3.9548778     0.6711316    -0.9994037
H           3.3582391     0.9396882    -1.8657953
C           5.2567698     1.1614196    -0.8716241
H           5.6623900     1.8114046    -1.6423130
C           0.8194255    -0.8044175    -3.5158490
H           0.7259479    -1.1332280    -4.5423376
C           1.6110490    -1.3350275    -2.5282159
H           2.3132692    -2.1554508    -2.5123150
N           1.3617356    -0.5722079    -1.4022042
C           0.4433459     0.3731013    -1.7746807
H           0.0696444     1.1079268    -1.0726383
N           0.0914199     0.2629999    -3.0371649
22
091_C10H10N2_18-0-9-10 (30,) energy =    -496.5779362
C           1.9407254    -0.5570230    -0.0770066
H           1.3130316     0.0939531     0.5439427
H           1.8467864    -1.5672815     0.3381174
C           6.0546744     0.7546749     0.2094141
H           7.0861242     1.0862144     0.2922173
C           5.5434018    -0.1795468     1.1116723
H           6.1754121    -0.5817717     1.8989238
C           4.2209681    -0.6094617     0.9969883
H           3.8303188    -1.3448028     1.6977276
C           3.3917107    -0.1052391    -0.0114801
C           3.9111988     0.8290302    -0.9143441
H           3.2807946     1.2176718    -1.7089975
C           5.2354337     1.2552758    -0.8040974
H           5.6275950     1.9784702    -1.5141287
C           0.8977527    -0.9542935    -3.5158567
H           0.8594159    -1.3573979    -4.5191601
C           1.6924991    -1.3603423    -2.4732147
H           2.4484971    -2.1260839    -2.3821840
N           1.3612850    -0.5382485    -1.4122077
C           0.3932641     0.3135714    -1.8741168
H          -0.0504636     1.0669718    -1.2352400
N           0.0875516     0.0925686    -3.1340241
22
091_C10H10N2_18-0-9-10 (45,) energy =    -496.5781037
C           1.9080896    -0.3951516    -0.0636013
H           1.3044054     0.3541236     0.4623083
H           1.7474134    -1.3487230     0.4527549
C           6.0847811     0.7045583     0.1687455
H           7.1323852     0.9851817     0.2354191
C           5.5842626    -0.3286144     0.9608335
H           6.2397873    -0.8591073     1.6462299
C           4.2387983    -0.6909123     0.8674468
H           3.8542968    -1.5018355     1.4825793
C           3.3795556    -0.0218567    -0.0099584
C           3.8900492     1.0135788    -0.8031907
H           3.2336868     1.5306591    -1.4982946
C           5.2340249     1.3732265    -0.7153977
H           5.6183997     2.1760400    -1.3388109
C           0.9513309    -1.0787062    -3.4851599
H           0.9473836    -1.5553326    -4.4564747
C           1.7471072    -1.3701336    -2.4054786
H           2.5350456    -2.0916674    -2.2488678
N           1.3664751    -0.4849018    -1.4145547
C           0.3682881     0.2848657    -1.9499793
H          -0.1177019     1.0630191    -1.3746314
N           0.0914579    -0.0426890    -3.1933317
22
091_C10H10N2_18-0-9-10 (60,) energy =    -496.5779846
C           1.8758488    -0.2578517    -0.0491837
H           1.2943471     0.5709118     0.3696934
H           1.6603790    -1.1420090     0.5622758
C           6.0979327     0.6531655     0.1406623
H           7.1579591     0.8861944     0.1929444
C           5.5926825    -0.4648918     0.8029082
H           6.2566728    -1.1088331     1.3732304
C           4.2293011    -0.7619410     0.7315319
H           3.8383783    -1.6352119     1.2493999
C           3.3597179     0.0540914     0.0019506
C           3.8756995     1.1768343    -0.6594712
H           3.2091900     1.8129458    -1.2370264
C           5.2352790     1.4734680    -0.5924827
H           5.6235104     2.3459868    -1.1109271
C           1.0057699    -1.2594301    -3.4182158
H           1.0347486    -1.8159487    -4.3456374
C           1.7951409    -1.4276921    -2.3078690
H           2.6069061    -2.1025220    -2.0812469
N           1.3686019    -0.4751957    -1.4020245
C           0.3519177     0.2083949    -2.0135457
H          -0.1697653     1.0148159    -1.5132557
N           0.1056343    -0.2343835    -3.2273817
22
091_C10H10N2_18-0-9-10 (75,) energy =    -496.5775968
C           1.8490388    -0.1377822    -0.0604143
H           1.2847710     0.7433035     0.2613539
H           1.5909395    -0.9558727     0.6222819
C           6.0990056     0.6341183     0.1126655
H           7.1668783     0.8299794     0.1566187
C           5.5853108    -0.5638636     0.6087161
H           6.2505881    -1.3057114     1.0421094
C           4.2116672    -0.8106514     0.5527545
H           3.8135416    -1.7426260     0.9485970
C           3.3399810     0.1321322    -0.0017873
C           3.8645192     1.3355026    -0.4914230
H           3.1957545     2.0760407    -0.9242517
C           5.2346132     1.5845581    -0.4376369
H           5.6288174     2.5216543    -0.8212829
C           1.0297988    -1.4309085    -3.3442588
H           1.0623326    -2.0748546    -4.2131518
C           1.7817248    -1.5207707    -2.1991569
H           2.5604292    -2.1998846    -1.8862031
N           1.3690063    -0.4704914    -1.4019500
C           0.3972106     0.1880487    -2.1062939
H          -0.1051236     1.0581596    -1.7021922
N           0.1660246    -0.3601028    -3.2794693
22
091_C10H10N2_18-0-9-10 (90,) energy =    -496.5768344
C           3.1103379    -0.1441343    -2.2937674
H           3.5753501    -0.9514504    -2.8722723
H           3.0768914     0.7393775    -2.9379106
C           5.3728853     0.6471964     1.3046652
H           5.9349491     0.8448283     2.2133057
C           4.6773853     1.6796888     0.6720035
H           4.6960362     2.6838175     1.0868277
C           3.9578586     1.4246156    -0.4952214
H           3.4128487     2.2309108    -0.9809650
C           3.9266893     0.1385708    -1.0477851
C           4.6274202    -0.8896232    -0.4061606
H           4.6218374    -1.8909708    -0.8317662
C           5.3467953    -0.6388683     0.7631261
H           5.8892230    -1.4462046     1.2476100
C          -0.1067400    -1.5104284    -1.3266227
H          -0.8252145    -2.1766324    -0.8676028
C           1.2632334    -1.5870337    -1.2804336
H           1.9393941    -2.2753568    -0.7968251
N           1.7197669    -0.5103281    -2.0160625
C           0.6059006     0.1498629    -2.4608303
H           0.6813866     1.0397076    -3.0732655
N          -0.5111326    -0.4222099    -2.0671829
22
091_C10H10N2_18-0-9-10 (105,) energy =    -496.5776064
C           3.1378209    -0.2534546    -2.2865930
H           3.5685019    -1.1262683    -2.7912414
H           3.1733084     0.5803150    -2.9950949
C           5.3826305     0.6492669     1.2956462
H           5.9430136     0.8759038     2.1985490
C           4.5183037     1.6023750     0.7498577
H           4.4048385     2.5717472     1.2275417
C           3.8009508     1.3129386    -0.4093107
H           3.1238646     2.0546104    -0.8269860
C           3.9378167     0.0691377    -1.0394996
C           4.8030114    -0.8794495    -0.4846474
H           4.9201371    -1.8469133    -0.9684624
C           5.5241209    -0.5924616     0.6766049
H           6.1948423    -1.3382805     1.0945334
C          -0.1705355    -1.3442578    -1.2911271
H          -0.9350759    -1.9270983    -0.7946571
C           1.1915205    -1.4939982    -1.2074035
H           1.8203597    -2.1742985    -0.6530896
N           1.7226157    -0.5109208    -2.0200895
C           0.6577324     0.1713657    -2.5443109
H           0.7957205     0.9994807    -3.2283379
N          -0.4974210    -0.3012208    -2.1290977
22
091_C10H10N2_18-0-9-10 (120,) energy =    -496.5779756
C           3.1482216    -0.3583696    -2.2602097
H           3.5403819    -1.2851614    -2.6951987
H           3.2549568     0.4228958    -3.0209211
C           5.4105026     0.6655351     1.2790204
H           5.9805374     0.9251100     2.1669146
C           4.3920222     1.5105474     0.8281727
H           4.1685456     2.4284230     1.3651564
C           3.6607478     1.1794329    -0.3104689
H           2.8633003     1.8345405    -0.6530779
C           3.9363668    -0.0009178    -1.0140144
C           4.9530551    -0.8428171    -0.5535590
H           5.1734951    -1.7626740    -1.0910494
C           5.6900662    -0.5116984     0.5862891
H           6.4778903    -1.1756225     0.9317732
C          -0.2450249    -1.1800142    -1.3012742
H          -1.0568571    -1.6797849    -0.7895855
C           1.1029322    -1.3953814    -1.1568192
H           1.6756356    -2.0629956    -0.5306956
N           1.7144713    -0.5093429    -2.0231772
C           0.7068186     0.1856081    -2.6369398
H           0.9135154     0.9480374    -3.3776982
N          -0.4856225    -0.1898722    -2.2282025
22
091_C10H10N2_18-0-9-10 (135,) energy =    -496.5781015
C           3.1459648    -0.4878185    -2.2240674
H           3.4893188    -1.4684835    -2.5736882
H           3.3257734     0.2198547    -3.0420909
C           5.4343146     0.7070589     1.2459839
H           6.0152496     1.0110528     2.1124653
C           4.2849827     1.4167651     0.8876558
H           3.9697155     2.2747106     1.4753579
C           3.5375485     1.0276311    -0.2226440
H           2.6397034     1.5773879    -0.4931523
C           3.9280799    -0.0787331    -0.9880778
C           5.0757816    -0.7875891    -0.6196707
H           5.3843043    -1.6522572    -1.2035865
C           5.8288822    -0.3961268     0.4894928
H           6.7174689    -0.9580438     0.7643521
C          -0.3183325    -1.0235796    -1.3280771
H          -1.1768650    -1.4472081    -0.8240112
C           1.0049585    -1.3433028    -1.1531953
H           1.5109547    -2.0428707    -0.5047230
N           1.7015536    -0.5284608    -2.0255921
C           0.7641305     0.2329105    -2.6714953
H           1.0450058     0.9601792    -3.4231092
N          -0.4617547    -0.0368611    -2.2787022
22
091_C10H10N2_18-0-9-10 (150,) energy =    -496.5779735
C           3.1427032    -0.6378299    -2.1664401
H           3.4284696    -1.6670357    -2.4132273
H           3.3938275    -0.0258879    -3.0414390
C           5.4602798     0.7603162     1.2093528
H           6.0522052     1.1155358     2.0484637
C           4.2063792     1.3166831     0.9489794
H           3.8188020     2.1076639     1.5854388
C           3.4437649     0.8612394    -0.1269847
H           2.4661465     1.2935606    -0.3206697
C           3.9249202    -0.1613848    -0.9525109
C           5.1803249    -0.7177836    -0.6829419
H           5.5607007    -1.5188713    -1.3136868
C           5.9465213    -0.2589033     0.3893626
H           6.9181105    -0.7034548     0.5877494
C          -0.3747989    -0.8969538    -1.3702771
H          -1.2779580    -1.2493665    -0.8899581
C           0.9130169    -1.3233441    -1.1619564
H           1.3435503    -2.0614952    -0.5017043
N           1.6960180    -0.5699201    -2.0166181
C           0.8406193     0.2645303    -2.6858494
H           1.1988315     0.9660586    -3.4289692
N          -0.4126960     0.0958399    -2.3246862
22
091_C10H10N2_18-0-9-10 (165,) energy =    -496.5776628
C           3.1348910    -0.7889180    -2.1028585
H           3.3454133    -1.8585850    -2.2186306
H           3.4629327    -0.3073687    -3.0320521
C           5.4673866     0.8236007     1.1689818
H           6.0644812     1.2297155     1.9808747
C           4.1412484     1.2231263     1.0040056
H           3.6999552     1.9432975     1.6878153
C           3.3712527     0.7021644    -0.0385972
H           2.3386381     1.0157739    -0.1576633
C           3.9203864    -0.2296275    -0.9241746
C           5.2521010    -0.6284301    -0.7518331
H           5.6886491    -1.3569887    -1.4326263
C           6.0224050    -0.1052615     0.2857324
H           7.0533793    -0.4266754     0.4076137
C          -0.4183044    -0.7394929    -1.4453687
H          -1.3675096    -1.0139751    -1.0046784
C           0.8141820    -1.2953315    -1.2092717
H           1.1482620    -2.0892379    -0.5577043
N           1.6947210    -0.6055270    -2.0220783
C           0.9478714     0.3255070    -2.6937571
H           1.3975883     1.0063278    -3.4056080
N          -0.3271984     0.2729376    -2.3754566
22
091_C10H10N2_18-0-9-10 (180,) energy =    -496.5773604
C           3.1174940    -0.9405820    -2.0031495
H           3.2382590    -2.0297201    -1.9660972
H           3.5108394    -0.6210322    -2.9752795
C           5.4860559     0.8859131     1.1292688
H           6.0914672     1.3404804     1.9086537
C           4.1140408     1.1268653     1.0751800
H           3.6439812     1.7716736     1.8129186
C           3.3327964     0.5441583     0.0733139
H           2.2650587     0.7369298     0.0399723
C           3.9192193    -0.2881259    -0.8832356
C           5.2993227    -0.5251249    -0.8246728
H           5.7674127    -1.1706466    -1.5658539
C           6.0784662     0.0560808     0.1736932
H           7.1473868    -0.1375500     0.2057684
C          -0.4473120    -0.6082866    -1.5151746
H          -1.4364157    -0.8103093    -1.1261395
C           0.7205661    -1.2751777    -1.2407663
H           0.9540963    -2.1138917    -0.6014577
N           1.6939218    -0.6472015    -1.9963297
C           1.0624692     0.3623788    -2.6725348
H           1.6017118     1.0201024    -3.3425247
N          -0.2258425     0.4136744    -2.4121403
