22
091_C10H10N2_9-0-18-16 (-165,) energy =    -496.5763681
C           2.9127084    -1.3894496    -1.2183527
H           2.6292937    -2.2027788    -0.5403748
H           3.3958203    -1.8467868    -2.0903661
C           5.6938086     1.2643873     0.7528794
H           6.3950015     1.9281079     1.2512936
C           4.5156781     0.8780011     1.3979525
H           4.2985250     1.2400423     2.3991432
C           3.6179171     0.0238880     0.7602445
H           2.7014132    -0.2738247     1.2641412
C           3.8830327    -0.4529348    -0.5312069
C           5.0636533    -0.0591135    -1.1695111
H           5.2784776    -0.4231199    -2.1716131
C           5.9668276     0.7941710    -0.5315148
H           6.8807651     1.0901856    -1.0390999
C          -0.3356554    -0.4159459    -2.4790942
H          -1.3465185    -0.5328038    -2.8471985
C           0.5154709    -1.3916732    -2.0248977
H           0.4161686    -2.4630653    -1.9272695
N           1.6721761    -0.7339984    -1.6486558
C           1.4619457     0.5935201    -1.9144592
H           2.2156661     1.3419804    -1.7168647
N           0.2610519     0.8221412    -2.4046889
22
091_C10H10N2_9-0-18-16 (-150,) energy =    -496.5768227
C           2.9739859    -1.3397309    -1.3936754
H           2.7427079    -2.2343628    -0.8046727
H           3.4626576    -1.6784648    -2.3156130
C           5.6635550     1.2150398     0.8230258
H           6.3417199     1.8527743     1.3833985
C           4.4218103     0.8670982     1.3629577
H           4.1329194     1.2331280     2.3444085
C           3.5516626     0.0487914     0.6458711
H           2.5843736    -0.2158013     1.0659779
C           3.9091037    -0.4310521    -0.6221668
C           5.1514249    -0.0752829    -1.1559455
H           5.4370017    -0.4400097    -2.1400611
C           6.0272604     0.7422500    -0.4371939
H           6.9892921     1.0104529    -0.8651865
C          -0.4024149    -0.4187883    -2.3131556
H          -1.4555669    -0.5406435    -2.5295628
C           0.4832293    -1.3666712    -1.8663193
H           0.3781779    -2.4166544    -1.6347315
N           1.6922923    -0.7108899    -1.7226457
C           1.4733199     0.5856268    -2.1066570
H           2.2612997     1.3256602    -2.0924524
N           0.2227537     0.7992483    -2.4592524
22
091_C10H10N2_9-0-18-16 (-135,) energy =    -496.5770357
C           3.0477042    -1.2820962    -1.5373949
H           2.8691739    -2.2386060    -1.0337384
H           3.5405362    -1.5110776    -2.4900528
C           5.6483754     1.1667436     0.8974062
H           6.3050543     1.7757424     1.5126582
C           4.3551693     0.8671734     1.3357559
H           4.0044707     1.2424915     2.2933124
C           3.5112364     0.0872365     0.5478482
H           2.5035527    -0.1374214     0.8882538
C           3.9476244    -0.4019099    -0.6911706
C           5.2405529    -0.0935348    -1.1245947
H           5.5868384    -0.4636446    -2.0871348
C           6.0898876     0.6846154    -0.3340994
H           7.0915404     0.9171813    -0.6852887
C          -0.4231151    -0.4351336    -2.1260982
H          -1.4953352    -0.5642221    -2.1913359
C           0.5133646    -1.3461125    -1.7068369
H           0.4402663    -2.3669224    -1.3609400
N           1.7316790    -0.6976467    -1.7953299
C           1.4638856     0.5585872    -2.2700908
H           2.2480459     1.2860827    -2.4309740
N           0.1782259     0.7533434    -2.4757806
22
091_C10H10N2_9-0-18-16 (-120,) energy =    -496.5771419
C           3.0973858    -1.2226627    -1.6632507
H           2.9712756    -2.2283256    -1.2469635
H           3.5888644    -1.3442119    -2.6355577
C           5.6171301     1.1116930     0.9642793
H           6.2543128     1.6905788     1.6272515
C           4.2864846     0.8624322     1.3110340
H           3.8861216     1.2471118     2.2451517
C           3.4666512     0.1219491     0.4611001
H           2.4297659    -0.0620699     0.7302150
C           3.9661731    -0.3767200    -0.7491064
C           5.2968311    -0.1177429    -1.0922704
H           5.6924432    -0.4935009    -2.0335667
C           6.1210820     0.6196960    -0.2394412
H           7.1522591     0.8150694    -0.5211239
C          -0.4262281    -0.4355241    -1.9477163
H          -1.4979395    -0.5614183    -1.8700089
C           0.5578805    -1.3075875    -1.5550489
H           0.5316277    -2.2873396    -1.1006963
N           1.7537369    -0.6866965    -1.8669526
C           1.4254366     0.5178223    -2.4285461
H           2.1817080     1.2168380    -2.7608381
N           0.1238487     0.7031251    -2.4930381
22
091_C10H10N2_9-0-18-16 (-105,) energy =    -496.5772428
C           3.1284623    -1.1266895    -1.8000128
H           3.0792877    -2.1798919    -1.5002686
H           3.6033748    -1.1068309    -2.7873329
C           5.5722498     1.0501323     1.0310972
H           6.1924117     1.5882095     1.7427992
C           4.2056201     0.8913871     1.2699002
H           3.7580644     1.3064300     2.1689898
C           3.4068802     0.2032882     0.3562702
H           2.3425550     0.0906803     0.5436274
C           3.9658331    -0.3316906    -0.8102250
C           5.3345931    -0.1626058    -1.0466387
H           5.7778575    -0.5655125    -1.9551608
C           6.1357108     0.5205346    -0.1304878
H           7.1965170     0.6464836    -0.3299089
C          -0.4263052    -0.4479261    -1.7661023
H          -1.4780086    -0.5833680    -1.5516382
C           0.6192598    -1.2671077    -1.4201347
H           0.6725018    -2.2013945    -0.8803735
N           1.7523602    -0.6636938    -1.9350027
C           1.3292654     0.4814268    -2.5540963
H           2.0226871     1.1553851    -3.0404630
N           0.0254594     0.6421897    -2.4760344
22
091_C10H10N2_9-0-18-16 (-90,) energy =    -496.5772637
C           3.1748804    -0.9181340    -1.9930620
H           3.2867019    -2.0067927    -1.9272332
H           3.5727950    -0.6275100    -2.9721826
C           5.5405675     0.9517554     1.1156029
H           6.1447571     1.4148550     1.8909211
C           4.1508021     1.0586193     1.1492274
H           3.6657454     1.6067008     1.9525251
C           3.3716787     0.4651855     0.1523183
H           2.2902022     0.5538444     0.1863776
C           3.9783403    -0.2409546    -0.8895204
C           5.3756702    -0.3428509    -0.9194787
H           5.8598278    -0.8868231    -1.7286826
C           6.1525318     0.2472139     0.0757257
H           7.2352026     0.1607315     0.0377218
C          -0.4027352    -0.6342366    -1.5634518
H          -1.4007123    -0.8739444    -1.2214057
C           0.7600885    -1.3233682    -1.3247793
H           0.9802062    -2.2210976    -0.7658085
N           1.7508021    -0.6235261    -1.9891016
C           1.1333478     0.4451594    -2.5820793
H           1.6873727     1.1658288    -3.1701116
N          -0.1616525     0.4695022    -2.3516884
22
091_C10H10N2_9-0-18-16 (-75,) energy =    -496.5778849
C           3.1708255    -0.5034322    -2.2015984
H           3.4865288    -1.5053262    -2.5122688
H           3.3710007     0.1639748    -3.0488157
C           5.5220165     0.7920831     1.1925484
H           6.1207307     1.1211418     2.0374967
C           4.2845950     1.3861761     0.9351035
H           3.9167288     2.1794870     1.5802811
C           3.5133916     0.9643590    -0.1479387
H           2.5474630     1.4245826    -0.3373960
C           3.9694330    -0.0602194    -0.9854727
C           5.2066402    -0.6559434    -0.7170970
H           5.5665177    -1.4596305    -1.3564389
C           5.9822813    -0.2308909     0.3627616
H           6.9400662    -0.7051644     0.5594538
C          -0.3169902    -1.0153048    -1.3937911
H          -1.1971972    -1.4795968    -0.9692642
C           0.9878721    -1.4283620    -1.2911079
H           1.4566096    -2.2584252    -0.7835091
N           1.7269493    -0.5063541    -2.0077877
C           0.8303482     0.4034614    -2.5020158
H           1.1484254     1.2355111    -3.1178639
N          -0.4082013     0.1305203    -2.1529644
22
091_C10H10N2_9-0-18-16 (-60,) energy =    -496.5780911
C           1.9085381     0.7355040    -0.6463521
H           1.7552565     1.7255620    -1.0917267
H           1.3042472     0.7021960     0.2678644
C           6.0834312     0.2207059     0.3575414
H           7.1309023     0.0948629     0.6176480
C           5.2058099    -0.8643038     0.4350577
H           5.5695744    -1.8366856     0.7560065
C           3.8621728    -0.7048763     0.1010127
H           3.1848681    -1.5534099     0.1549027
C           3.3781544     0.5413769    -0.3180785
C           4.2635517     1.6205530    -0.3989377
H           3.8991454     2.5910770    -0.7290954
C           5.6095174     1.4640384    -0.0598723
H           6.2857563     2.3118427    -0.1290370
C           0.9585429    -1.5851444    -3.2557151
H           0.9717770    -2.0883516    -4.2134513
C           1.7827189    -0.5774364    -2.8206584
H           2.6137874    -0.0612548    -3.2775053
N           1.3621908    -0.2825155    -1.5374745
C           0.3149191    -1.1245512    -1.2735728
H          -0.2084505    -1.0977935    -0.3258960
N           0.0433457    -1.9227846    -2.2830025
22
091_C10H10N2_9-0-18-16 (-45,) energy =    -496.5776779
C           1.8696208     0.6645143    -0.5140494
H           1.6634682     1.6887232    -0.8490079
H           1.3007415     0.5086352     0.4096400
C           6.1001351     0.2333886     0.2608250
H           7.1626335     0.1267012     0.4617933
C           5.2392074    -0.8525034     0.4456303
H           5.6309470    -1.8052709     0.7914010
C           3.8765570    -0.7170526     0.1889624
H           3.2108788    -1.5653582     0.3278065
C           3.3554517     0.5049873    -0.2587469
C           4.2239993     1.5845976    -0.4450173
H           3.8302275     2.5363156    -0.7950082
C           5.5902720     1.4523102    -0.1844996
H           6.2529391     2.3003971    -0.3340332
C           1.0107753    -1.5164856    -3.2768605
H           1.0945144    -2.0191392    -4.2313126
C           1.8941410    -0.6319994    -2.7097697
H           2.8427733    -0.2332916    -3.0352735
N           1.3386930    -0.2833457    -1.4928004
C           0.1609465    -0.9751519    -1.3955525
H          -0.4811698    -0.8834238    -0.5283928
N          -0.0699702    -1.7277511    -2.4493314
22
091_C10H10N2_9-0-18-16 (-30,) energy =    -496.5767838
C           1.8538891     0.5576608    -0.3969694
H           1.5918833     1.6005394    -0.6150608
H           1.3260853     0.2764671     0.5210985
C           6.1249374     0.2580209     0.1842192
H           7.1983806     0.1840299     0.3355441
C           5.2997528    -0.8332020     0.4714350
H           5.7301966    -1.7574256     0.8472358
C           3.9228545    -0.7380170     0.2804472
H           3.2838907    -1.5896147     0.5014811
C           3.3513864     0.4476597    -0.2029462
C           4.1848637     1.5333266    -0.4896330
H           3.7516075     2.4575583    -0.8652684
C           5.5653856     1.4414997    -0.2961989
H           6.2000380     2.2940357    -0.5221100
C           1.0681119    -1.4732322    -3.3012065
H           1.2014942    -1.9788740    -4.2483962
C           1.9856150    -0.7191400    -2.6124318
H           3.0095132    -0.4473023    -2.8157103
N           1.3363280    -0.3039301    -1.4645766
C           0.0746478    -0.8323125    -1.5246824
H          -0.6506266    -0.6622736    -0.7387296
N          -0.1239461    -1.5412320    -2.6152444
22
091_C10H10N2_9-0-18-16 (-15,) energy =    -496.5758386
C           1.8268892     0.4395429    -0.2777530
H           1.5030160     1.4835301    -0.3674474
H           1.3502573     0.0265095     0.6181351
C           6.1254815     0.2999212     0.1195176
H           7.2066948     0.2658041     0.2219705
C           5.3486762    -0.7917508     0.5161628
H           5.8245069    -1.6772102     0.9286268
C           3.9612476    -0.7456032     0.3882369
H           3.3584718    -1.5963868     0.6972160
C           3.3320899     0.3905202    -0.1389695
C           4.1183535     1.4784932    -0.5341133
H           3.6394717     2.3653097    -0.9427831
C           5.5080856     1.4355417    -0.4054880
H           6.1057785     2.2889588    -0.7137276
C           1.0813225    -1.4094380    -3.3187397
H           1.2404008    -1.9112103    -4.2640078
C           2.0174624    -0.7977356    -2.5220671
H           3.0839445    -0.6695494    -2.6153775
N           1.3171042    -0.3142311    -1.4323386
C           0.0081934    -0.6617144    -1.6326751
H          -0.7645740    -0.4038813    -0.9192061
N          -0.1725583    -1.3213819    -2.7571640
22
091_C10H10N2_9-0-18-16 (0,) energy =    -496.5754217
C           1.8062840     0.3097008    -0.1944823
H           1.4199846     1.3343758    -0.1502364
H           1.3866951    -0.2353247     0.6588580
C           6.1165331     0.3569744     0.0736991
H           7.2008306     0.3698166     0.1427109
C           5.3953094    -0.7260452     0.5801043
H           5.9159242    -1.5588739     1.0447833
C           4.0027926    -0.7389458     0.4948548
H           3.4432160    -1.5831387     0.8910473
C           3.3149682     0.3275712    -0.0976272
C           4.0472719     1.4098445    -0.6013665
H           3.5225511     2.2439465    -1.0614777
C           5.4398467     1.4257276    -0.5173179
H           5.9951667     2.2732439    -0.9095993
C           1.0787554    -1.3116404    -3.3697918
H           1.2473785    -1.8037818    -4.3184444
C           2.0188937    -0.8691780    -2.4722000
H           3.0966192    -0.8940473    -2.4729211
N           1.3019268    -0.3153553    -1.4275953
C          -0.0201832    -0.4546483    -1.7539145
H          -0.8082319    -0.1003009    -1.1011320
N          -0.1937212    -1.0494198    -2.9153633
22
091_C10H10N2_9-0-18-16 (15,) energy =    -496.5758392
C           1.8257509     0.1505433    -0.1286476
H           1.3768495     1.1344808     0.0464208
H           1.4682734    -0.5170619     0.6646291
C           6.1321719     0.4244120     0.0641076
H           7.2151941     0.4957655     0.1153364
C           5.4714628    -0.6470189     0.6657970
H           6.0372913    -1.4140194     1.1874519
C           4.0794001    -0.7345675     0.6010226
H           3.5669501    -1.5702911     1.0719922
C           3.3337973     0.2455993    -0.0633625
C           4.0065263     1.3186844    -0.6637796
H           3.4363812     2.0853633    -1.1831768
C           5.3963461     1.4078986    -0.6019768
H           5.9052287     2.2463132    -1.0696519
C           1.0899038    -1.2337639    -3.4094275
H           1.2502002    -1.7171288    -4.3640315
C           2.0190719    -0.9680305    -2.4340766
H           3.0780448    -1.1580721    -2.3631797
N           1.3213865    -0.3382295    -1.4200611
C           0.0214894    -0.2570166    -1.8417662
H          -0.7471408     0.2015540    -1.2321858
N          -0.1565748    -0.7865417    -3.0335350
22
091_C10H10N2_9-0-18-16 (30,) energy =    -496.5767838
C           1.8506361    -0.0075808    -0.0951558
H           1.3457539     0.9188246     0.2004519
H           1.5524224    -0.7821638     0.6224716
C           6.1377229     0.5059969     0.0687450
H           7.2152819     0.6382871     0.1136248
C           5.5333878    -0.5535661     0.7445202
H           6.1372016    -1.2516466     1.3178722
C           4.1477374    -0.7209583     0.6844772
H           3.6795894    -1.5488367     1.2121866
C           3.3535725     0.1680957    -0.0465922
C           3.9700678     1.2308272    -0.7223123
H           3.3617800     1.9244761    -1.2977918
C           5.3521630     1.3984113    -0.6665842
H           5.8174333     2.2266317    -1.1941047
C           1.0855085    -1.1676538    -3.4485554
H           1.2204144    -1.6489111    -4.4081467
C           1.9888491    -1.0737032    -2.4190195
H           2.9997204    -1.4301517    -2.2979404
N           1.3443668    -0.3605206    -1.4252335
C           0.0995335    -0.0631475    -1.9116920
H          -0.6184815     0.5009658    -1.3295370
N          -0.0929212    -0.5325134    -3.1257474
22
091_C10H10N2_9-0-18-16 (45,) energy =    -496.5776778
C           1.8688846    -0.1830389    -0.0838544
H           1.3157778     0.6743398     0.3162634
H           1.6279736    -1.0449503     0.5507829
C           6.1192692     0.5831344     0.0918875
H           7.1867796     0.7797683     0.1411074
C           5.5676069    -0.4740006     0.8145064
H           6.2024796    -1.1067691     1.4287388
C           4.1950119    -0.7257050     0.7460770
H           3.7683825    -1.5530363     1.3089595
C           3.3617216     0.0771037    -0.0386262
C           3.9247497     1.1376980    -0.7621771
H           3.2865788     1.7618851    -1.3827950
C           5.2937823     1.3882213    -0.6986287
H           5.7181948     2.2128229    -1.2649266
C           1.0441271    -1.1402068    -3.4796946
H           1.1318319    -1.6268426    -4.4420586
C           1.9069383    -1.2166612    -2.4148141
H           2.8389352    -1.7392440    -2.2627860
N           1.3555377    -0.4142258    -1.4334164
C           0.2006045     0.0988988    -1.9606470
H          -0.4336234     0.7685370    -1.3931736
N          -0.0198645    -0.3148573    -3.1896218
22
091_C10H10N2_9-0-18-16 (60,) energy =    -496.5780911
C           1.8895844    -0.3319560    -0.0919694
H           1.2993813     0.4482479     0.4029991
H           1.7008155    -1.2651214     0.4517715
C           6.0914644     0.6640865     0.1398571
H           7.1457146     0.9189293     0.2053667
C           5.5752887    -0.3846045     0.9004580
H           6.2251636    -0.9530736     1.5602810
C           4.2206508    -0.7127315     0.8090275
H           3.8231554    -1.5349947     1.4002895
C           3.3687647     0.0057562    -0.0354648
C           3.8952155     1.0572129    -0.7972708
H           3.2439881     1.6136347    -1.4665664
C           5.2475339     1.3830726    -0.7112135
H           5.6442377     2.1989626    -1.3093860
C           0.9726067    -1.0788546    -3.5120580
H           0.9876349    -1.5657906    -4.4781406
C           1.7724659    -1.3340567    -2.4261958
H           2.5811877    -2.0295165    -2.2584548
N           1.3612185    -0.4495832    -1.4469329
C           0.3431017     0.2841929    -1.9950912
H          -0.1676181     1.0545054    -1.4307219
N           0.0813476    -0.0654085    -3.2357053
22
091_C10H10N2_9-0-18-16 (75,) energy =    -496.5778849
C           1.9430587    -0.4906009    -0.0913928
H           1.3241481     0.1797144     0.5176675
H           1.8306858    -1.4930463     0.3356615
C           6.0730623     0.7712002     0.1848685
H           7.1082731     1.0914802     0.2649621
C           5.5898074    -0.2504000     1.0031423
H           6.2468873    -0.7323939     1.7221074
C           4.2614156    -0.6643835     0.8917682
H           3.8916734    -1.4669130     1.5269218
C           3.3999549    -0.0587144    -0.0294578
C           3.8921708     0.9643731    -0.8481912
H           3.2369616     1.4324215    -1.5778171
C           5.2209177     1.3751607    -0.7422688
H           5.5915034     2.1674913    -1.3871012
C           0.8404274    -0.9823811    -3.5006751
H           0.7487195    -1.4426781    -4.4754965
C           1.5956769    -1.4049225    -2.4353471
H           2.2653568    -2.2408181    -2.2968562
N           1.3676054    -0.4846375    -1.4298555
C           0.4899006     0.4335908    -1.9420000
H           0.1314415     1.2664035    -1.3498291
N           0.1510579     0.1676608    -3.1849270
22
091_C10H10N2_9-0-18-16 (90,) energy =    -496.5772640
C           2.0696767    -0.9017252    -0.2585800
H           1.4247977    -0.5999123     0.5748398
H           2.1702668    -1.9912581    -0.1897594
C           5.9663704     0.9256832     0.2241857
H           6.9453316     1.3780905     0.3567506
C           5.3667392     0.2289435     1.2764470
H           5.8764329     0.1377767     2.2319644
C           4.1096635    -0.3475529     1.1046472
H           3.6467311    -0.8856636     1.9300081
C           3.4349587    -0.2395581    -0.1188535
C           4.0392833     0.4586502    -1.1673658
H           3.5268176     0.5517742    -2.1198972
C           5.2990712     1.0384923    -0.9948123
H           5.7561291     1.5804966    -1.8183994
C           0.6532555    -0.6163210    -3.5717975
H           0.4464083    -0.8581148    -4.6058101
C           1.4337028    -1.3106886    -2.6814667
H           2.0153485    -2.2169412    -2.7663905
N           1.3630522    -0.6045800    -1.4944047
C           0.5541791     0.4733049    -1.7370458
H           0.3313788     1.2008250    -0.9668521
N           0.1059520     0.4974296    -2.9736777
22
091_C10H10N2_9-0-18-16 (105,) energy =    -496.5772427
C           2.2507974    -1.1341143    -0.3725568
H           1.6369465    -1.1130345     0.5348556
H           2.4839359    -2.1877244    -0.5652629
C           5.9302759     1.0380888     0.3105708
H           6.8582439     1.5750280     0.4872211
C           5.2120316     0.5073429     1.3828323
H           5.5758924     0.6311907     2.3993088
C           4.0160064    -0.1741764     1.1529819
H           3.4551405    -0.5781810     1.9934855
C           3.5285799    -0.3405730    -0.1480839
C           4.2532623     0.1956195    -1.2188445
H           3.8769198     0.0848829    -2.2320991
C           5.4459094     0.8821509    -0.9898061
H           5.9961378     1.2982298    -1.8294846
C           0.4905705    -0.4558418    -3.4612724
H           0.1461407    -0.5914726    -4.4778331
C           1.3153788    -1.2751827    -2.7316541
H           1.8069509    -2.2104927    -2.9566319
N           1.4418837    -0.6709919    -1.4938817
C           0.6950398     0.4747879    -1.5484313
H           0.6250020     1.1496090    -0.7050318
N           0.1061089     0.6353234    -2.7143081
22
091_C10H10N2_9-0-18-16 (120,) energy =    -496.5771418
C           2.3536851    -1.2311533    -0.4689992
H           1.7616571    -1.3521953     0.4456651
H           2.6489712    -2.2369999    -0.7876980
C           5.8953435     1.0999212     0.3832597
H           6.7897989     1.6777547     0.5993854
C           5.1093026     0.6083001     1.4250894
H           5.3861230     0.8030617     2.4577007
C           3.9565047    -0.1279401     1.1429457
H           3.3424427    -0.5034216     1.9588451
C           3.5816865    -0.3859874    -0.1792895
C           4.3755804     0.1122804    -1.2205677
H           4.0851075    -0.0708461    -2.2518408
C           5.5236215     0.8515414    -0.9407944
H           6.1288185     1.2359888    -1.7573680
C           0.3325279    -0.4418682    -3.3686258
H          -0.1406866    -0.5673028    -4.3333913
C           1.1668785    -1.3148697    -2.7167777
H           1.5457231    -2.2946427    -2.9689317
N           1.5007995    -0.6945463    -1.5266033
C           0.8508372     0.5102795    -1.5266576
H           0.9453012     1.2086100    -0.7054409
N           0.1395797     0.6967559    -2.6184105
22
091_C10H10N2_9-0-18-16 (135,) energy =    -496.5770356
C           2.4694428    -1.2701133    -0.5524079
H           1.8989970    -1.5025205     0.3550302
H           2.8102366    -2.2252677    -0.9671462
C           5.8938953     1.1656074     0.4623735
H           6.7589327     1.7713154     0.7182289
C           5.0566374     0.6801708     1.4660302
H           5.2637901     0.9067920     2.5083675
C           3.9423988    -0.0936768     1.1323101
H           3.2889075    -0.4661540     1.9181818
C           3.6576773    -0.3945348    -0.2030055
C           4.5040550     0.0979397    -1.2060056
H           4.2847544    -0.1206237    -2.2480803
C           5.6133263     0.8735986    -0.8756606
H           6.2604929     1.2514870    -1.6625196
C           0.2001979    -0.4037255    -3.2376576
H          -0.4013520    -0.5267507    -4.1284867
C           1.0351304    -1.3197725    -2.6490916
H           1.2937610    -2.3397848    -2.8934768
N           1.5797538    -0.6783545    -1.5515564
C           1.0376774     0.5790581    -1.5342308
H           1.2994143     1.3018631    -0.7732535
N           0.2074962     0.7810603    -2.5358049
22
091_C10H10N2_9-0-18-16 (150,) energy =    -496.5768227
C           2.5787302    -1.3391934    -0.7060852
H           2.0278306    -1.6810577     0.1788801
H           2.9745885    -2.2317803    -1.2034095
C           5.8381277     1.2235785     0.5122217
H           6.6611725     1.8633388     0.8186921
C           4.9321002     0.7462560     1.4584030
H           5.0438508     1.0128671     2.5058060
C           3.8734631    -0.0738638     1.0600494
H           3.1668457    -0.4419428     1.8005167
C           3.7126078    -0.4278220    -0.2829816
C           4.6285873     0.0566137    -1.2275836
H           4.5075614    -0.2063389    -2.2756176
C           5.6829609     0.8774999    -0.8334070
H           6.3856912     1.2470301    -1.5752311
C           0.0856785    -0.4214134    -3.1629005
H          -0.6298120    -0.5440628    -3.9652926
C           0.9196112    -1.3677112    -2.6229438
H           1.0705740    -2.4168086    -2.8320914
N           1.6488145    -0.7114430    -1.6482131
C           1.2026753     0.5836910    -1.6424013
H           1.6082589     1.3237561    -0.9667046
N           0.2692963     0.7960690    -2.5465685
22
091_C10H10N2_9-0-18-16 (165,) energy =    -496.5763681
C           2.6747822    -1.3770673    -0.8315339
H           2.1682310    -1.8376465     0.0253513
H           3.1126886    -2.1884249    -1.4243456
C           5.7913660     1.2633201     0.5749169
H           6.5782382     1.9238153     0.9287512
C           4.8234255     0.7901205     1.4606016
H           4.8516606     1.0805806     2.5072046
C           3.8132153    -0.0589084     1.0028681
H           3.0588862    -0.4253402     1.6953761
C           3.7618483    -0.4455286    -0.3403605
C           4.7398508     0.0342472    -1.2228763
H           4.7069018    -0.2580067    -2.2697850
C           5.7470200     0.8841378    -0.7695655
H           6.4993703     1.2485708    -1.4636562
C          -0.0596600    -0.3861972    -2.9833276
H          -0.8906597    -0.4976952    -3.6674415
C           0.7617795    -1.3664236    -2.4861454
H           0.7926715    -2.4372400    -2.6263946
N           1.6751956    -0.7149803    -1.6778550
C           1.3426750     0.6135482    -1.7172509
H           1.8976940     1.3578430    -1.1647180
N           0.3106388     0.8486051    -2.5011167
22
091_C10H10N2_9-0-18-16 (180,) energy =    -496.5759893
C           2.8070317    -1.4154746    -1.0381634
H           2.4017325    -2.0652468    -0.2537168
H           3.2858437    -2.0623324    -1.7826334
C           5.7245176     1.2824751     0.6537927
H           6.4596412     1.9594645     1.0802638
C           4.6500155     0.8390297     1.4271868
H           4.5454305     1.1690210     2.4570850
C           3.7089536    -0.0332092     0.8793205
H           2.8731582    -0.3774778     1.4840583
C           3.8294147    -0.4714965    -0.4452666
C           4.9112627    -0.0218815    -1.2125324
H           5.0148978    -0.3574806    -2.2418211
C           5.8538462     0.8505276    -0.6676418
H           6.6896151     1.1898479    -1.2733353
C          -0.1931851    -0.3668940    -2.7725197
H          -1.1260648    -0.4648841    -3.3122152
C           0.6194593    -1.3682155    -2.3030273
H           0.5516119    -2.4457905    -2.3427756
N           1.6808748    -0.7308646    -1.6881158
C           1.4509061     0.6129023    -1.8204471
H           2.1326732     1.3518035    -1.4258631
N           0.3320291     0.8676751    -2.4679276
