18
267_C7H9NO_0-4-14-9 (-165,) energy =    -402.1390558
C           1.8019824    -1.4703373    -0.7269024
H           0.7275797    -1.6579411    -0.7744214
H           2.2980516    -2.2431621    -0.1309152
H           2.2333380    -1.4749204    -1.7321026
O           1.9342496    -0.1875417    -0.1103404
C           5.6949587     1.1153250     0.7717735
H           6.7083445     1.4384632     0.9875969
C           4.5887312     1.7600036     1.3421388
H           4.7328751     2.5983283     2.0202433
C           3.2981391     1.3309447     1.0588578
C           2.0673686     1.9713269     1.6423147
H           2.3357365     2.7851858     2.3232044
H           1.4649097     1.2408860     2.1949276
H           1.4192259     2.3784926     0.8571888
C           3.1932881     0.2357052     0.1680309
N           4.2233178    -0.4008321    -0.3723901
C           5.4568025     0.0412704    -0.0728299
H           6.2794409    -0.5012310    -0.5352759
18
267_C7H9NO_0-4-14-9 (-150,) energy =    -402.1367962
C           1.7815013    -1.4571800    -0.6728020
H           0.7043475    -1.6123191    -0.7608965
H           2.1994997    -2.1323302     0.0820796
H           2.2712927    -1.6537766    -1.6304981
O           1.9395316    -0.0927950    -0.2747426
C           5.6919542     1.1142299     0.7780363
H           6.7036015     1.4113700     1.0356551
C           4.5806503     1.7348975     1.3619691
H           4.7182490     2.5255097     2.0963828
C           3.2915455     1.3357213     1.0258399
C           2.0552076     1.9507936     1.6253817
H           2.3177715     2.6952318     2.3836254
H           1.4202710     1.1886221     2.0914288
H           1.4415837     2.4415214     0.8605632
C           3.1956701     0.3043424     0.0628929
N           4.2324091    -0.3164126    -0.4844577
C           5.4623558     0.0915647    -0.1319794
H           6.2903054    -0.4352844    -0.6031002
18
267_C7H9NO_0-4-14-9 (-135,) energy =    -402.1338340
C           1.7507735    -1.4386073    -0.6041806
H           0.7057468    -1.5463187    -0.9011726
H           1.9240379    -1.9704120     0.3398241
H           2.4065623    -1.8520226    -1.3750181
O           1.9659314    -0.0346339    -0.4368075
C           5.6986793     1.1096877     0.7648457
H           6.7055940     1.3923179     1.0555573
C           4.5789778     1.6904535     1.3687476
H           4.7022808     2.4347638     2.1524654
C           3.2950038     1.3071707     0.9883411
C           2.0496802     1.8851402     1.6072237
H           2.3015136     2.5774698     2.4167996
H           1.4051278     1.0971325     2.0127289
H           1.4500647     2.4271489     0.8665932
C           3.2160540     0.3404905    -0.0378224
N           4.2639619    -0.2428247    -0.6067451
C           5.4856733     0.1431798    -0.2110283
H           6.3231764    -0.3509709    -0.7005384
18
267_C7H9NO_0-4-14-9 (-120,) energy =    -402.1310937
C           1.7200081    -1.3770283    -0.5087454
H           0.7394002    -1.5050485    -0.9716010
H           1.6792383    -1.7153374     0.5354241
H           2.4680210    -1.9624386    -1.0523196
O           2.0147885     0.0199419    -0.5772025
C           5.7195184     1.1139569     0.7642933
H           6.7208922     1.3849878     1.0841390
C           4.5895895     1.6528076     1.3843383
H           4.6979157     2.3532840     2.2095449
C           3.3124221     1.2841632     0.9619478
C           2.0554219     1.8254199     1.5918422
H           2.2931278     2.4799975     2.4363627
H           1.4095272     1.0176973     1.9540638
H           1.4630167     2.3983064     0.8693205
C           3.2542416     0.3801839    -0.1182130
N           4.3138483    -0.1610915    -0.7078126
C           5.5266107     0.2059335    -0.2721161
H           6.3748023    -0.2510031    -0.7791132
18
267_C7H9NO_0-4-14-9 (-105,) energy =    -402.1287256
C           1.6917589    -1.3023147    -0.4382287
H           0.7356251    -1.4554512    -0.9431995
H           1.5614311    -1.4534347     0.6424349
H           2.4283881    -2.0195517    -0.8180206
O           2.0911042     0.0376411    -0.7273167
C           5.7357753     1.1120642     0.7903155
H           6.7239495     1.3795358     1.1518264
C           4.5825595     1.6004233     1.4079233
H           4.6580378     2.2588772     2.2705423
C           3.3231505     1.2394731     0.9274182
C           2.0417109     1.7364967     1.5457258
H           2.2486617     2.4094083     2.3838836
H           1.4265658     0.9097469     1.9201381
H           1.4311202     2.2744309     0.8124844
C           3.3080836     0.3950432    -0.2003500
N           4.3907589    -0.0942993    -0.7930115
C           5.5854107     0.2646158    -0.3034406
H           6.4543918    -0.1471620    -0.8138445
18
267_C7H9NO_0-4-14-9 (-90,) energy =    -402.1268234
C           1.6235757    -1.2118797    -0.3652021
H           0.6853048    -1.3634941    -0.9033123
H           1.4202999    -1.1791526     0.7137643
H           2.3052940    -2.0448757    -0.5778295
O           2.1655902     0.0195748    -0.8385672
C           5.7517255     1.1072312     0.8128631
H           6.7274150     1.3787067     1.2042261
C           4.5777372     1.5350230     1.4349048
H           4.6233724     2.1554002     2.3273980
C           3.3344132     1.1736126     0.9133591
C           2.0371712     1.6288001     1.5325850
H           2.2087995     2.4447047     2.2418136
H           1.5392471     0.8177549     2.0794999
H           1.3369479     1.9722286     0.7650939
C           3.3561136     0.3838326    -0.2545135
N           4.4606872    -0.0381450    -0.8586319
C           5.6383134     0.3239030    -0.3319571
H           6.5246736    -0.0320516    -0.8543657
18
267_C7H9NO_0-4-14-9 (-75,) energy =    -402.1252711
C           1.5717002    -1.1328282    -0.3339551
H           0.6953820    -1.3155528    -0.9597479
H           1.2409748    -0.8946785     0.6842570
H           2.1928191    -2.0374562    -0.3083244
O           2.2764454    -0.0534045    -0.9427448
C           5.7913994     1.1070720     0.8178768
H           6.7525604     1.3928428     1.2341262
C           4.5961072     1.4712309     1.4374641
H           4.6093018     2.0632255     2.3502416
C           3.3699520     1.0959590     0.8843505
C           2.0623433     1.5274404     1.5011405
H           2.1871219     2.4625359     2.0570164
H           1.6724985     0.7822252     2.2070789
H           1.3006768     1.6810868     0.7312427
C           3.4293852     0.3439981    -0.3088109
N           4.5581424    -0.0064632    -0.9169287
C           5.7158186     0.3762900    -0.3644545
H           6.6189127     0.0794241    -0.8952934
18
267_C7H9NO_0-4-14-9 (-60,) energy =    -402.1235958
C           1.4883501    -1.0693476    -0.2861708
H           0.8829593    -1.5518349    -1.0571217
H           0.8213450    -0.5620639     0.4190357
H           2.0635769    -1.8363943     0.2472236
O           2.3507468    -0.1678943    -0.9762470
C           5.8121701     1.1313090     0.7974534
H           6.7644260     1.4442863     1.2142807
C           4.6080978     1.4286484     1.4339047
H           4.6045334     2.0005322     2.3595044
C           3.3901967     1.0233525     0.8822897
C           2.0827925     1.4325771     1.5163747
H           2.2304805     2.3024183     2.1645076
H           1.6481996     0.6375361     2.1355311
H           1.3426704     1.6987139     0.7547612
C           3.4667092     0.2913107    -0.3241653
N           4.6057407     0.0176852    -0.9547057
C           5.7513899     0.4387113    -0.4082488
H           6.6583263     0.2027293    -0.9627697
18
267_C7H9NO_0-4-14-9 (-45,) energy =    -402.1226177
C           1.4322934    -1.0212034    -0.2565869
H           1.0142321    -1.7495732    -0.9563511
H           0.6267118    -0.3663084     0.0917458
H           1.8610693    -1.5572786     0.5986494
O           2.4322131    -0.3130928    -0.9821807
C           5.8258004     1.1630753     0.7802576
H           6.7663787     1.5126697     1.1940746
C           4.6140374     1.4006464     1.4263071
H           4.5923328     1.9658600     2.3556982
C           3.4071134     0.9514045     0.8833786
C           2.0980265     1.3397049     1.5320706
H           2.2680180     2.1260949     2.2741659
H           1.6083376     0.5061107     2.0485258
H           1.3892007     1.7285870     0.7926892
C           3.5061251     0.2230607    -0.3265202
N           4.6527203     0.0153358    -0.9703254
C           5.7825225     0.4852844    -0.4343060
H           6.6918954     0.3007595    -1.0043179
18
267_C7H9NO_0-4-14-9 (-30,) energy =    -402.1214148
C           1.3784072    -0.9957327    -0.2621106
H           0.9392494    -1.7407230    -0.9301425
H           0.6274303    -0.2278610    -0.0519270
H           1.6706483    -1.4887649     0.6728569
O           2.5072594    -0.4847917    -0.9581286
C           5.8205811     1.2114015     0.7592207
H           6.7476019     1.6079326     1.1608102
C           4.6023680     1.4109441     1.4041617
H           4.5627130     1.9940082     2.3217949
C           3.4070522     0.9034024     0.8841361
C           2.1022523     1.2838888     1.5530068
H           2.2928146     2.0377643     2.3232295
H           1.5978550     0.4435711     2.0415044
H           1.3962303     1.7215413     0.8387128
C           3.5291303     0.1493822    -0.3108231
N           4.6837517    -0.0201772    -0.9545370
C           5.7959586     0.5076006    -0.4405825
H           6.7069301     0.3489225    -1.0159838
18
267_C7H9NO_0-4-14-9 (-15,) energy =    -402.1201796
C           1.3502131    -0.9531848    -0.3002497
H           0.8855235    -1.6724668    -0.9785926
H           0.6988410    -0.0777442    -0.2189911
H           1.4631026    -1.4226517     0.6838988
O           2.6060729    -0.6522761    -0.8884887
C           5.8397718     1.2824655     0.7274313
H           6.7504185     1.7410658     1.0990134
C           4.6180667     1.4605299     1.3706294
H           4.5618535     2.0840995     2.2602438
C           3.4385782     0.8742585     0.8966077
C           2.1416340     1.2218982     1.6032126
H           2.3503278     1.9311547     2.4101518
H           1.6419175     0.3602802     2.0555962
H           1.4243187     1.7056849     0.9313157
C           3.5825021     0.0684350    -0.2641382
N           4.7438401    -0.0890979    -0.9014261
C           5.8373923     0.5068797    -0.4269029
H           6.7509021     0.3470605    -0.9981177
18
267_C7H9NO_0-4-14-9 (0,) energy =    -402.1195426
C           1.2592489    -0.9103615    -0.3631066
H           0.7960630    -1.6277371    -1.0443726
H           0.7409992     0.0489846    -0.4620478
H           1.1544310    -1.2843173     0.6606793
O           2.6142664    -0.8385976    -0.7761732
C           5.7695922     1.3634917     0.6436960
H           6.6577777     1.9054402     0.9519120
C           4.5492101     1.5332731     1.2912316
H           4.4745367     2.2242184     2.1280741
C           3.3970440     0.8393613     0.9022522
C           2.1225144     1.1060924     1.6830107
H           2.3324019     1.8341297     2.4726527
H           1.7257487     0.2118403     2.1732543
H           1.3236530     1.5289412     1.0658491
C           3.5623778    -0.0468074    -0.1964916
N           4.7284432    -0.2162702    -0.8231436
C           5.7985822     0.4659157    -0.4176494
H           6.7175398     0.2804504    -0.9721978
18
267_C7H9NO_0-4-14-9 (15,) energy =    -402.1201796
C           1.3066628    -0.8143412    -0.4191408
H           0.8434199    -1.5380918    -1.0937097
H           0.9582380     0.1891890    -0.6897299
H           1.0022088    -1.0468089     0.6058233
O           2.7028982    -0.9615944    -0.6255341
C           5.7804076     1.4715886     0.5660150
H           6.6418775     2.0871548     0.8039494
C           4.5630577     1.6356045     1.2210971
H           4.4667382     2.3870599     2.0017699
C           3.4477906     0.8443452     0.9216108
C           2.2029759     1.0253565     1.7700680
H           2.3966868     1.7822852     2.5364123
H           1.9255416     0.1045353     2.2946202
H           1.3287523     1.3596231     1.2037183
C           3.6391296    -0.1126464    -0.1103548
N           4.8079264    -0.2938607    -0.7273910
C           5.8496864     0.4674122    -0.3935978
H           6.7771924     0.2630198    -0.9267814
18
267_C7H9NO_0-4-14-9 (30,) energy =    -402.1214148
C           1.3060600    -0.7649094    -0.4593609
H           0.8537677    -1.4677567    -1.1633312
H           1.1240175     0.2565676    -0.8144583
H           0.8380256    -0.9007606     0.5205670
O           2.6926079    -1.0767959    -0.4543714
C           5.7295635     1.5015737     0.5117135
H           6.5755403     2.1568150     0.6929890
C           4.5221973     1.6663510     1.1861948
H           4.4185490     2.4536007     1.9298888
C           3.4333065     0.8190575     0.9555154
C           2.2038068     0.9589256     1.8292615
H           2.4074157     1.6709775     2.6351211
H           1.9330055     0.0068210     2.2987143
H           1.3221522     1.3232928     1.2915776
C           3.6329569    -0.1824276    -0.0286318
N           4.7935118    -0.3708001    -0.6562431
C           5.8169613     0.4403197    -0.3835915
H           6.7438226     0.2310228    -0.9158112
18
267_C7H9NO_0-4-14-9 (45,) energy =    -402.1226177
C           1.3437777    -0.7387867    -0.4977777
H           0.9252969    -1.4656564    -1.1988498
H           1.2921057     0.2592565    -0.9493242
H           0.7478199    -0.7534047     0.4208112
O           2.6916281    -1.1416295    -0.2769529
C           5.7114780     1.5276803     0.4693585
H           6.5498682     2.2035211     0.6053338
C           4.5226015     1.6920203     1.1777052
H           4.4254014     2.4981284     1.9018924
C           3.4500682     0.8137187     1.0001834
C           2.2253232     0.9325262     1.8783472
H           2.4299535     1.6081316     2.7148251
H           1.9426209    -0.0392446     2.2979769
H           1.3509258     1.3273778     1.3483268
C           3.6423158    -0.2121049     0.0436950
N           4.7826267    -0.3996188    -0.6172472
C           5.7954658     0.4437368    -0.3992326
H           6.7104442     0.2414357    -0.9540397
18
267_C7H9NO_0-4-14-9 (60,) energy =    -402.1235958
C           1.3859289    -0.7425143    -0.5651938
H           0.9055336    -1.6240022    -0.9963047
H           1.4798084     0.0275068    -1.3410871
H           0.7585320    -0.3618784     0.2478487
O           2.6670505    -1.1781082    -0.1162654
C           5.6833725     1.5421345     0.4471821
H           6.5187286     2.2283394     0.5461468
C           4.5246931     1.6943715     1.2071534
H           4.4470804     2.5025238     1.9314907
C           3.4599977     0.7999348     1.0721219
C           2.2482147     0.9036516     1.9663585
H           2.4890926     1.4757461     2.8681330
H           1.9019322    -0.0877713     2.2759285
H           1.4061784     1.4096458     1.4772157
C           3.6298884    -0.2300439     0.1194657
N           4.7369367    -0.4013917    -0.5981196
C           5.7440625     0.4618887    -0.4283116
H           6.6346631     0.2781975    -1.0273129
18
267_C7H9NO_0-4-14-9 (75,) energy =    -402.1252711
C           1.4524960    -0.7523874    -0.6586389
H           0.7907827    -1.6203133    -0.7008145
H           1.6886522    -0.4276402    -1.6801903
H           0.9412036     0.0621750    -0.1314589
O           2.6302559    -1.1834016     0.0192657
C           5.6505368     1.5564235     0.4347881
H           6.4846662     2.2477778     0.5056142
C           4.5275734     1.6894611     1.2511694
H           4.4755744     2.4894466     1.9867738
C           3.4662608     0.7878862     1.1462934
C           2.2669991     0.8732240     2.0578499
H           2.5368343     1.3449571     3.0084435
H           1.8652832    -0.1224620     2.2669420
H           1.4566169     1.4708397     1.6198889
C           3.6101798    -0.2336138     0.1827391
N           4.6751122    -0.3801143    -0.5990409
C           5.6780672     0.4966190    -0.4672755
H           6.5374016     0.3396183    -1.1171935
18
267_C7H9NO_0-4-14-9 (90,) energy =    -402.1268234
C           1.4807874    -0.7561159    -0.7540445
H           0.7488131    -1.5664186    -0.7311268
H           1.8653366    -0.6400536    -1.7750655
H           0.9949161     0.1788385    -0.4436418
O           2.5259038    -1.1312137     0.1411468
C           5.6166518     1.5380970     0.4455170
H           6.4661194     2.2125754     0.4936556
C           4.5338354     1.6745925     1.3156135
H           4.5264704     2.4640276     2.0641004
C           3.4527242     0.7952705     1.2351568
C           2.2701428     0.8841524     2.1663252
H           2.4959890     1.5267561     3.0231890
H           1.9877292    -0.1065305     2.5352269
H           1.3872285     1.3024577     1.6660037
C           3.5425816    -0.2119092     0.2524747
N           4.5602014    -0.3560657    -0.5882247
C           5.5813991     0.5054206    -0.4869074
H           6.4030408     0.3562606    -1.1854092
18
267_C7H9NO_0-4-14-9 (105,) energy =    -402.1287256
C           1.5319490    -0.7921725    -0.8733888
H           0.7738141    -1.5775056    -0.8399000
H           2.0541677    -0.8246018    -1.8364720
H           1.0475478     0.1871985    -0.7557271
O           2.4330830    -1.0546180     0.2025340
C           5.6106733     1.5110893     0.4500931
H           6.4786421     2.1623564     0.4847421
C           4.5684918     1.6447212     1.3697893
H           4.6095763     2.4128175     2.1390163
C           3.4611762     0.7981681     1.3028498
C           2.3073329     0.8875737     2.2682908
H           2.4778718     1.6765790     3.0075705
H           2.1616878    -0.0591330     2.7996767
H           1.3648842     1.1059849     1.7523546
C           3.4877198    -0.1788922     0.2880598
N           4.4593109    -0.3133539    -0.6068258
C           5.5054829     0.5196224    -0.5209934
H           6.2889322     0.3811050    -1.2641093
18
267_C7H9NO_0-4-14-9 (120,) energy =    -402.1310937
C           1.5521372    -0.8411194    -0.9658542
H           0.7684633    -1.5979446    -0.8931425
H           2.1777082    -1.0353840    -1.8425661
H           1.0940566     0.1530194    -1.0567139
O           2.3149761    -0.9388866     0.2389801
C           5.6044285     1.4810145     0.4513061
H           6.4975898     2.0975498     0.4769119
C           4.5996545     1.6200387     1.4118565
H           4.6954297     2.3604041     2.2030923
C           3.4568447     0.8224182     1.3547905
C           2.3366112     0.9267652     2.3567705
H           2.5264389     1.7340502     3.0712264
H           2.2160615    -0.0070609     2.9176777
H           1.3768218     1.1213874     1.8651131
C           3.4105338    -0.1192184     0.3067034
N           4.3428083    -0.2537206    -0.6293236
C           5.4236910     0.5343645    -0.5522137
H           6.1720830     0.3962564    -1.3307390
18
267_C7H9NO_0-4-14-9 (135,) energy =    -402.1338340
C           1.5863734    -0.9137508    -1.0518746
H           0.7036517    -1.5397198    -0.9074723
H           2.2552006    -1.3686258    -1.7873475
H           1.2821679     0.0790414    -1.4065637
O           2.2115541    -0.8192382     0.2309599
C           5.5842026     1.4747886     0.4535299
H           6.4948170     2.0648888     0.4823997
C           4.6076719     1.5981906     1.4469470
H           4.7440064     2.3007046     2.2662771
C           3.4414766     0.8388675     1.3867707
C           2.3474913     0.9333852     2.4173813
H           2.5731136     1.7092278     3.1558368
H           2.2152021    -0.0168496     2.9478518
H           1.3830059     1.1669957     1.9525882
C           3.3393008    -0.0533975     0.2972121
N           4.2406490    -0.1685363    -0.6704421
C           5.3477328     0.5834408    -0.5863833
H           6.0686902     0.4615961    -1.3929753
18
267_C7H9NO_0-4-14-9 (150,) energy =    -402.1367962
C           1.6274953    -0.9655049    -1.0922276
H           0.6386926    -1.4027765    -0.9400688
H           2.2773086    -1.6729180    -1.6147571
H           1.5478120    -0.0514664    -1.6910439
O           2.1206012    -0.6712865     0.2174490
C           5.5759011     1.4843613     0.4624331
H           6.5054043     2.0437704     0.4967151
C           4.6264110     1.5881356     1.4865918
H           4.8058298     2.2450245     2.3349255
C           3.4372237     0.8699489     1.4221128
C           2.3696584     0.9458991     2.4808062
H           2.6377714     1.6724364     3.2543179
H           2.2143345    -0.0267848     2.9625283
H           1.4049129     1.2368706     2.0497013
C           3.2792273     0.0371808     0.2899751
N           4.1514384    -0.0580226    -0.7049829
C           5.2860687     0.6542663    -0.6116376
H           5.9818906     0.5494805    -1.4422261
18
267_C7H9NO_0-4-14-9 (165,) energy =    -402.1390551
C           1.6519564    -1.0094466    -1.1134474
H           0.6437793    -1.4073243    -0.9829013
H           2.3310183    -1.7978419    -1.4507366
H           1.6517463    -0.2070049    -1.8582304
O           2.0306612    -0.5118545     0.1719136
C           5.5774982     1.4759107     0.4681316
H           6.5300409     1.9937910     0.5173389
C           4.6447228     1.5675203     1.5104977
H           4.8632955     2.1697992     2.3896259
C           3.4280607     0.9020739     1.4295657
C           2.3794834     0.9625323     2.5076002
H           2.6923019     1.6255958     3.3203123
H           2.1836065    -0.0304479     2.9297388
H           1.4242387     1.3255861     2.1109968
C           3.2182716     0.1393742     0.2552678
N           4.0767967     0.0492696    -0.7510693
C           5.2425230     0.7090112    -0.6377295
H           5.9253449     0.6112456    -1.4797849
18
267_C7H9NO_0-4-14-9 (180,) energy =    -402.1398810
C           1.7981596    -1.4510642    -0.7705172
H           0.7243912    -1.6397052    -0.8260356
H           2.3135322    -2.3073599    -0.3248368
H           2.2080860    -1.2806033    -1.7706092
O           1.9335084    -0.2864900     0.0468052
C           5.6897396     1.1289111     0.7539625
H           6.7019310     1.4816264     0.9242678
C           4.5849389     1.7884548     1.3111940
H           4.7292108     2.6724486     1.9285431
C           3.2964506     1.3234185     1.0834627
C           2.0672842     1.9828807     1.6484918
H           2.3355480     2.8458693     2.2659786
H           1.4881594     1.2837623     2.2630704
H           1.3969896     2.3242393     0.8505607
C           3.1913901     0.1684200     0.2705479
N           4.2186434    -0.4738049    -0.2676012
C           5.4507080     0.0068815    -0.0245993
H           6.2712404    -0.5435165    -0.4813065
