10
150_C2H6O2_0-2-7-5 (-165,) energy =    -230.2360507
O           1.4287239    -1.1377250    -0.9484944
H           1.0486293    -0.2724637    -1.1660125
C           2.1592106    -1.0009754     0.2644467
H           2.4320640    -2.0226502     0.5564477
H           1.5451364    -0.5846371     1.0769422
O           4.3346078    -0.3235128     1.1821607
H           4.6563209    -1.2382763     1.1772829
C           3.4427313    -0.1800681     0.0844877
H           3.2155276     0.8903523     0.0198346
H           3.9097812    -0.4785662    -0.8669564
10
150_C2H6O2_0-2-7-5 (-150,) energy =    -230.2340460
O           1.4977154    -1.2393051    -0.9433585
H           1.1080082    -0.4141946    -1.2713525
C           2.1399818    -0.9605793     0.2956167
H           2.4083772    -1.9411966     0.7069014
H           1.4578519    -0.4860105     1.0165360
O           4.3955767    -0.4158446     1.1361991
H           4.6838440    -1.3341851     1.0182769
C           3.4336672    -0.1412976     0.1262076
H           3.2391997     0.9351707     0.1847996
H           3.8291770    -0.3571715    -0.8789853
10
150_C2H6O2_0-2-7-5 (-135,) energy =    -230.2320257
O           1.5656339    -1.3463512    -0.9211913
H           1.1937323    -0.5670130    -1.3618273
C           2.1170073    -0.9261378     0.3225226
H           2.3548515    -1.8493379     0.8628111
H           1.3761550    -0.3831581     0.9283960
O           4.4436451    -0.5085221     1.0753668
H           4.7071391    -1.4108346     0.8364897
C           3.4234638    -0.1114390     0.1680025
H           3.2603055     0.9536015     0.3631777
H           3.7529678    -0.2168733    -0.8780525
10
150_C2H6O2_0-2-7-5 (-120,) energy =    -230.2313870
O           1.6323232    -1.4495017    -0.8786189
H           1.3107894    -0.7214224    -1.4316039
C           2.0947643    -0.8917089     0.3481473
H           2.2792762    -1.7398355     1.0154085
H           1.3113106    -0.2768980     0.8177244
O           4.4782162    -0.6013761     0.9974221
H           4.7117042    -1.4723386     0.6394202
C           3.4122595    -0.0890468     0.2079135
H           3.2814054     0.9430286     0.5495188
H           3.6790966    -0.0586531    -0.8608620
10
150_C2H6O2_0-2-7-5 (-105,) energy =    -230.2328310
O           1.7056851    -1.5493901    -0.8175810
H           1.4563828    -0.8822058    -1.4746963
C           2.0808725    -0.8593413     0.3723824
H           2.2040658    -1.6208423     1.1482979
H           1.2699016    -0.1877861     0.6974949
O           4.5031319    -0.6846231     0.8941074
H           4.6771911    -1.5252414     0.4411553
C           3.4004570    -0.0704579     0.2406257
H           3.3037556     0.9076045     0.7244694
H           3.6034767     0.1068734    -0.8286563
10
150_C2H6O2_0-2-7-5 (-90,) energy =    -230.2358294
O           1.7859707    -1.6293700    -0.7471912
H           1.6160522    -1.0310697    -1.4906786
C           2.0700421    -0.8201899     0.3931202
H           2.1358991    -1.4971958     1.2496711
H           1.2408243    -0.1185733     0.5827910
O           4.5092301    -0.7586472     0.7667332
H           4.5851702    -1.5737715     0.2443404
C           3.3875104    -0.0467557     0.2656457
H           3.3395684     0.8654391     0.8713091
H           3.5280042     0.2636010    -0.7844926
10
150_C2H6O2_0-2-7-5 (-75,) energy =    -230.2390400
O           1.8977822    -1.7040320    -0.6646183
H           1.7686938    -1.1803219    -1.4707100
C           2.0708707    -0.7861148     0.4160951
H           2.0851891    -1.3866202     1.3300988
H           1.2207653    -0.0870322     0.4785946
O           4.5044974    -0.8118825     0.6376227
H           4.4494946    -1.6094733     0.0850059
C           3.3818196    -0.0159376     0.2966915
H           3.3870923     0.8257863     0.9989755
H           3.4675153     0.4056690    -0.7215130
10
150_C2H6O2_0-2-7-5 (-60,) energy =    -230.2410869
O           2.0061895    -1.7616910    -0.5904972
H           1.8989637    -1.3124380    -1.4441763
C           2.0677726    -0.7526768     0.4221857
H           2.0198423    -1.2883315     1.3747301
H           1.2059197    -0.0699986     0.3635604
O           4.4862442    -0.8545150     0.4992390
H           4.2869117    -1.6336369    -0.0485198
C           3.3812305     0.0133744     0.3284213
H           3.4408922     0.7719576     1.1173969
H           3.4271625     0.5431908    -0.6419114
10
150_C2H6O2_0-2-7-5 (-45,) energy =    -230.2406869
O           2.0825040    -1.8215004    -0.5099367
H           1.9740631    -1.4576138    -1.4036929
C           2.0656471    -0.7271410     0.4144332
H           1.9428952    -1.1933756     1.3967176
H           1.2116723    -0.0576402     0.2395001
O           4.4818137    -0.8680345     0.3486868
H           4.1604666    -1.6405376    -0.1505085
C           3.3930291     0.0327807     0.3571575
H           3.4959411     0.6918917     1.2269792
H           3.4073794     0.6748454    -0.5442797
10
150_C2H6O2_0-2-7-5 (-30,) energy =    -230.2379515
O           2.1168070    -1.8718106    -0.4303547
H           2.0187284    -1.5918614    -1.3550498
C           2.0602079    -0.7040912     0.3976013
H           1.8591863    -1.0941711     1.4000956
H           1.2295171    -0.0439898     0.1167253
O           4.4855370    -0.8406695     0.1744099
H           4.0802071    -1.6423616    -0.2049480
C           3.4075133     0.0494214     0.3773942
H           3.5497015     0.5868966     1.3232819
H           3.3918173     0.8077696    -0.4265163
10
150_C2H6O2_0-2-7-5 (-15,) energy =    -230.2355657
O           1.3619920    -0.5678589     0.7306764
H           1.3466488     0.3453038     0.3998840
C           2.2793402    -1.2652883    -0.1035659
H           1.8988392    -1.3133775    -1.1353950
H           2.3220208    -2.2887441     0.2792353
O           3.6340870     0.7082978     0.4833121
H           3.2584256     0.5984630     1.3723271
C           3.6907992    -0.5985710    -0.0759112
H           4.0879268    -0.4801095    -1.0878799
H           4.3994310    -1.2257294     0.4864841
10
150_C2H6O2_0-2-7-5 (0,) energy =    -230.2345100
O           1.3218319    -0.4931303     0.6306180
H           1.3810244     0.4076585     0.2715369
C           2.2803594    -1.2698646    -0.0761072
H           1.9437398    -1.4730840    -1.1042788
H           2.3240284    -2.2292681     0.4480076
O           3.6622738     0.6616538     0.6039945
H           3.2471361     0.4850782     1.4644261
C           3.6828326    -0.5778548    -0.0920479
H           3.9872035    -0.3350750    -1.1145446
H           4.4455610    -1.2529549     0.3254413
10
150_C2H6O2_0-2-7-5 (15,) energy =    -230.2350202
O           1.1845043    -0.4737249     0.3150662
H           1.5740131     0.4164924     0.3895918
C           2.2406854    -1.3131667    -0.1118427
H           2.0468853    -1.7024221    -1.1226219
H           2.2792600    -2.1805476     0.5637377
O           3.5324551     0.6500425     0.6495404
H           3.4789361     0.4169578     1.5907335
C           3.6062361    -0.5651587    -0.1001622
H           3.8754239    -0.2425051    -1.1099677
H           4.4102548    -1.2160040     0.2671718
10
150_C2H6O2_0-2-7-5 (30,) energy =    -230.2379515
O           1.1592159    -0.4144394     0.0660199
H           1.5587649     0.3867775     0.4524488
C           2.2398213    -1.3052199    -0.1194561
H           2.1129821    -1.8421442    -1.0678362
H           2.2416105    -2.0639596     0.6842364
O           3.5183128     0.6146884     0.7105586
H           3.6008126     0.3342306     1.6366197
C           3.5878193    -0.5526804    -0.1169089
H           3.8057513    -0.1622728    -1.1157355
H           4.4132525    -1.2135197     0.1774103
10
150_C2H6O2_0-2-7-5 (45,) energy =    -230.2406869
O           1.1658488    -0.3870019    -0.1081448
H           1.4794348     0.3850499     0.3966530
C           2.2539780    -1.2886004    -0.0989683
H           2.1650630    -1.9472208    -0.9707036
H           2.2241893    -1.9310866     0.8017895
O           3.5512644     0.5643166     0.7906801
H           3.6445585     0.1999254     1.6859391
C           3.5826760    -0.5296180    -0.1338151
H           3.7220599    -0.0630039    -1.1136975
H           4.4331465    -1.1998221     0.0549466
10
150_C2H6O2_0-2-7-5 (60,) energy =    -230.2410869
O           1.1598905    -0.4059556    -0.2555740
H           1.3510637     0.3748106     0.2927522
C           2.2635630    -1.2720698    -0.0679187
H           2.2151682    -2.0328067    -0.8555892
H           2.2054815    -1.7993666     0.9031353
O           3.6242801     0.5070730     0.8643137
H           3.7209754     0.0602147     1.7205020
C           3.5772466    -0.5046762    -0.1464178
H           3.6370793     0.0285229    -1.0996671
H           4.4390613    -1.1861428    -0.0746383
10
150_C2H6O2_0-2-7-5 (75,) energy =    -230.2390400
O           1.1479374    -0.4430006    -0.3974588
H           1.1943412     0.3542968     0.1563690
C           2.2642234    -1.2399252    -0.0383105
H           2.2700182    -2.0813069    -0.7409988
H           2.1613185    -1.6619531     0.9781246
O           3.7332821     0.4466336     0.9483549
H           3.8485678    -0.0775522     1.7562277
C           3.5775252    -0.4706335    -0.1355342
H           3.5788224     0.1303181    -1.0493570
H           4.4280525    -1.1703005    -0.1842494
10
150_C2H6O2_0-2-7-5 (90,) energy =    -230.2358294
O           1.1329098    -0.4907065    -0.5011502
H           1.0603999     0.3217055     0.0258985
C           2.2446117    -1.2156304     0.0032714
H           2.2892200    -2.1240540    -0.6083129
H           2.0938463    -1.5318354     1.0502204
O           3.8526345     0.3457177     1.0385139
H           4.0193221    -0.2590165     1.7774980
C           3.5698464    -0.4533252    -0.1093519
H           3.5172626     0.2298389    -0.9619632
H           4.3938105    -1.1615509    -0.2971478
10
150_C2H6O2_0-2-7-5 (105,) energy =    -230.2328308
O           1.1405070    -0.5663079    -0.6218390
H           0.9736015     0.2747117    -0.1668972
C           2.2345520    -1.1938570     0.0335263
H           2.3246926    -2.1698708    -0.4556199
H           2.0249347    -1.3756052     1.1008329
O           3.9364215     0.2641940     1.1086475
H           4.1769491    -0.4088869     1.7629940
C           3.5615136    -0.4155507    -0.0871654
H           3.4484563     0.3512586    -0.8594460
H           4.3686656    -1.0917032    -0.4121646
10
150_C2H6O2_0-2-7-5 (120,) energy =    -230.2313871
O           1.1636992    -0.6544792    -0.7258154
H           0.9359686     0.2174379    -0.3664184
C           2.2227687    -1.1773420     0.0660457
H           2.3472074    -2.2092433    -0.2784654
H           1.9516382    -1.2092290     1.1337034
O           4.0085932     0.1661852     1.1638458
H           4.3228686    -0.5660648     1.7154910
C           3.5467424    -0.3840915    -0.0665137
H           3.3711416     0.4675879    -0.7316647
H           4.3273983    -1.0031623    -0.5351415
10
150_C2H6O2_0-2-7-5 (135,) energy =    -230.2320257
O           1.1973926    -0.7507071    -0.8024087
H           0.9380072     0.1524007    -0.5620514
C           2.2129065    -1.1554165     0.1068265
H           2.3706455    -2.2209393    -0.0901644
H           1.8811897    -1.0503506     1.1522184
O           4.0746594     0.0667994     1.2036275
H           4.4408795    -0.7155649     1.6436615
C           3.5242836    -0.3476818    -0.0424513
H           3.2929975     0.5779809    -0.5813696
H           4.2637244    -0.8934633    -0.6475323
10
150_C2H6O2_0-2-7-5 (150,) energy =    -230.2340460
O           1.2390061    -0.8464272    -0.8614955
H           0.9534473     0.0725795    -0.7422085
C           2.1994291    -1.1255797     0.1486561
H           2.3900733    -2.2026705     0.0889455
H           1.8041893    -0.9094315     1.1538947
O           4.1387746    -0.0356961     1.2204271
H           4.5249123    -0.8626826     1.5479269
C           3.4961054    -0.3107130    -0.0191724
H           3.2313748     0.6713255    -0.4294264
H           4.1768916    -0.7868576    -0.7403252
10
150_C2H6O2_0-2-7-5 (165,) energy =    -230.2360508
O           1.2983954    -0.9399601    -0.9072065
H           0.9870656    -0.0215592    -0.9070111
C           2.1886667    -1.0876624     0.1911910
H           2.4116978    -2.1589317     0.2551232
H           1.7215777    -0.7885511     1.1424776
O           4.2041257    -0.1383971     1.2282536
H           4.5954870    -1.0009354     1.4360636
C           3.4750075    -0.2707869     0.0140164
H           3.2053873     0.7522470    -0.2767928
H           4.0889013    -0.6872516    -0.7984275
10
150_C2H6O2_0-2-7-5 (180,) energy =    -230.2368652
O           1.3649416    -1.0417082    -0.9352672
H           0.9999032    -0.1490345    -1.0362151
C           2.1796825    -1.0446710     0.2300819
H           2.4371896    -2.0955554     0.4104054
H           1.6386920    -0.6829914     1.1177126
O           4.2730547    -0.2241128     1.2091187
H           4.6219944    -1.1219231     1.3216909
C           3.4577343    -0.2217135     0.0443169
H           3.1993647     0.8289521    -0.1355549
H           3.9985963    -0.5828309    -0.8436767
