17
301_C7H8O2_0-4-12-9 (-165,) energy =    -421.9886043
C           2.0718547    -2.0132939    -0.7336584
H           2.6817809    -2.7563812    -0.2042673
H           2.4008789    -1.9538898    -1.7791348
H           1.0221930    -2.3120756    -0.7062481
O           2.1397448    -0.7465645    -0.0964553
C           5.7655028     1.0863214     0.7967683
H           6.6912453     1.5928356     1.0543265
C           4.5648502     1.5091281     1.3761563
H           4.5341442     2.3319185     2.0836763
C           3.3749659     0.8647231     1.0544467
O           2.2008350     1.2669553     1.6191103
H           1.5087481     0.6748280     1.2755107
C           3.3857863    -0.2071992     0.1387589
C           4.5817918    -0.6313815    -0.4326171
H           4.5930075    -1.4594620    -1.1334570
C           5.7762591     0.0217177    -0.1009352
H           6.7078029    -0.3103745    -0.5496372
17
301_C7H8O2_0-4-12-9 (-150,) energy =    -421.9878270
C           2.0607601    -2.0279448    -0.6643725
H           2.6285559    -2.6797868     0.0111637
H           2.4354381    -2.1537162    -1.6880341
H           1.0033784    -2.2999368    -0.6402551
O           2.1326430    -0.6702101    -0.2460844
C           5.7631012     1.0585583     0.8250004
H           6.6905987     1.5366430     1.1269732
C           4.5599252     1.4626961     1.4104043
H           4.5286294     2.2404974     2.1670831
C           3.3669158     0.8522445     1.0333096
O           2.1892394     1.2315820     1.6043212
H           1.5001957     0.6652576     1.2126126
C           3.3800025    -0.1597743     0.0534177
C           4.5798949    -0.5667657    -0.5223705
H           4.5877763    -1.3517753    -1.2718701
C           5.7766587     0.0476896    -0.1344252
H           6.7118527    -0.2694430    -0.5863303
17
301_C7H8O2_0-4-12-9 (-135,) energy =    -421.9869274
C           2.0314160    -2.0304513    -0.5844416
H           2.4588386    -2.5740794     0.2670861
H           2.5321127    -2.3519846    -1.5057268
H           0.9650706    -2.2519107    -0.6686411
O           2.1335676    -0.6202619    -0.3968047
C           5.7469869     1.0340440     0.8475056
H           6.6711749     1.4902606     1.1909687
C           4.5380946     1.4027517     1.4417479
H           4.4988616     2.1319314     2.2450120
C           3.3486259     0.8180267     1.0102707
O           2.1638069     1.1626030     1.5861550
H           1.4814735     0.6359590     1.1305783
C           3.3754627    -0.1294839    -0.0297548
C           4.5817020    -0.4962605    -0.6191823
H           4.5922230    -1.2266301    -1.4226268
C           5.7735101     0.0878698    -0.1775695
H           6.7146742    -0.1975756    -0.6380698
17
301_C7H8O2_0-4-12-9 (-120,) energy =    -421.9863840
C           2.0281824    -2.0169978    -0.5028561
H           2.2078321    -2.4045007     0.5080829
H           2.7090197    -2.5153923    -1.2029203
H           0.9975551    -2.2235706    -0.8004026
O           2.1816473    -0.5965434    -0.5457353
C           5.7606343     1.0043485     0.8633411
H           6.6780196     1.4429582     1.2459929
C           4.5448708     1.3237002     1.4699974
H           4.4928968     1.9994211     2.3180263
C           3.3632791     0.7612570     0.9859573
O           2.1689465     1.0618917     1.5658774
H           1.4941136     0.5960926     1.0375999
C           3.4096986    -0.1151766    -0.1119034
C           4.6224957    -0.4240414    -0.7205489
H           4.6374752    -1.0895797    -1.5790221
C           5.8052809     0.1352498    -0.2289764
H           6.7528748    -0.1040710    -0.7022968
17
301_C7H8O2_0-4-12-9 (-105,) energy =    -421.9859689
C           1.9992061    -1.9821521    -0.4058673
H           2.0138839    -2.1863337     0.6726301
H           2.7555934    -2.6063192    -0.8966299
H           1.0137642    -2.2203489    -0.8131178
O           2.2233117    -0.5935306    -0.6736105
C           5.7621477     0.9727701     0.8706597
H           6.6722946     1.3962809     1.2863831
C           4.5398840     1.2388793     1.4896069
H           4.4759923     1.8607379     2.3771094
C           3.3677110     0.6963417     0.9608425
O           2.1643415     0.9490087     1.5464132
H           1.4953677     0.5595226     0.9529069
C           3.4322981    -0.1067580    -0.1896625
C           4.6508922    -0.3607942    -0.8108231
H           4.6702150    -0.9706992    -1.7098321
C           5.8240705     0.1799892    -0.2781350
H           6.7773801    -0.0137274    -0.7606718
17
301_C7H8O2_0-4-12-9 (-90,) energy =    -421.9853019
C           1.9635527    -1.9360954    -0.3147388
H           1.8715272    -1.9540828     0.7788102
H           2.7292090    -2.6598108    -0.6198819
H           1.0068016    -2.2041408    -0.7692734
O           2.2843664    -0.6219122    -0.7899688
C           5.7615948     0.9562609     0.8796905
H           6.6581873     1.3756653     1.3277695
C           4.5286946     1.1581201     1.5027192
H           4.4429555     1.7282899     2.4225318
C           3.3740952     0.6231100     0.9309976
O           2.1582167     0.8222752     1.5165145
H           1.4967458     0.5216656     0.8665819
C           3.4653121    -0.1122877    -0.2621925
C           4.6940553    -0.3026455    -0.8852898
H           4.7304250    -0.8656054    -1.8137117
C           5.8501328     0.2363087    -0.3141746
H           6.8113821     0.0931123    -0.7986421
17
301_C7H8O2_0-4-12-9 (-75,) energy =    -421.9838092
C           1.9200942    -1.8997962    -0.2478566
H           1.7143852    -1.7425352     0.8175322
H           2.6698042    -2.6940218    -0.3517415
H           1.0020108    -2.1964179    -0.7604015
O           2.3659868    -0.6957382    -0.8883629
C           5.7646281     0.9507456     0.8834524
H           6.6456529     1.3764494     1.3556796
C           4.5229515     1.0797676     1.5082888
H           4.4135319     1.6050531     2.4520804
C           3.3874087     0.5394802     0.9054037
O           2.1634617     0.6962086     1.4966994
H           1.4994647     0.4987735     0.8129199
C           3.5034813    -0.1390386    -0.3196608
C           4.7421269    -0.2555544    -0.9433203
H           4.7987198    -0.7816316    -1.8918492
C           5.8774568     0.2977887    -0.3459153
H           6.8435059     0.2100212    -0.8341323
17
301_C7H8O2_0-4-12-9 (-60,) energy =    -421.9809143
C           1.8256770    -1.8879410    -0.2561279
H           1.4899510    -1.5836816     0.7398947
H           2.5280239    -2.7245995    -0.1484590
H           0.9692291    -2.2096614    -0.8527949
O           2.4331864    -0.8146601    -0.9874368
C           5.7371357     0.9398472     0.8711113
H           6.6016115     1.3789999     1.3610030
C           4.4905762     0.9981637     1.4945069
H           4.3573663     1.4884589     2.4540536
C           3.3716444     0.4437530     0.8728500
O           2.1459571     0.5753312     1.4802449
H           1.4708285     0.5064720     0.7851958
C           3.5071526    -0.1924754    -0.3740554
C           4.7544311    -0.2335023    -0.9962857
H           4.8302954    -0.7336182    -1.9572402
C           5.8685459     0.3428400    -0.3844128
H           6.8353954     0.3075896    -0.8778305
17
301_C7H8O2_0-4-12-9 (-45,) energy =    -421.9775689
C           1.7364291    -1.8264280    -0.2399267
H           0.8754780    -1.3519666     0.2465691
H           2.3339485    -2.3381118     0.5225379
H           1.3629227    -2.5586196    -0.9604446
O           2.5280263    -0.9044673    -0.9916505
C           5.7848251     0.9610371     0.8462411
H           6.6444893     1.4254764     1.3207536
C           4.5603549     0.9343781     1.5110083
H           4.4359349     1.3845633     2.4912704
C           3.4422267     0.3493009     0.9136252
O           2.2462505     0.3998416     1.5967468
H           1.5301418     0.4428466     0.9456221
C           3.5597004    -0.2443444    -0.3562854
C           4.7869422    -0.1949248    -1.0227066
H           4.8502373    -0.6609066    -2.0014344
C           5.8937994     0.4142365    -0.4343897
H           6.8407358     0.4409666    -0.9656703
17
301_C7H8O2_0-4-12-9 (-30,) energy =    -421.9754408
C           1.6440278    -1.7771955    -0.2803295
H           0.7544454    -1.1813735    -0.0330191
H           2.0589315    -2.2038462     0.6379989
H           1.3301279    -2.5846878    -0.9469746
O           2.6133762    -1.0299435    -1.0089613
C           5.7842301     0.9948854     0.8156178
H           6.6279160     1.4986811     1.2781904
C           4.5726428     0.9048378     1.4960740
H           4.4409873     1.3428563     2.4809664
C           3.4696596     0.2689648     0.9208617
O           2.2992559     0.2559242     1.6573170
H           1.5505683     0.3570778     1.0527207
C           3.5917337    -0.3163813    -0.3542282
C           4.8078689    -0.2007187    -1.0379450
H           4.8760824    -0.6598837    -2.0195213
C           5.8948704     0.4562414    -0.4681889
H           6.8288396     0.5281096    -1.0180417
17
301_C7H8O2_0-4-12-9 (-15,) energy =    -421.9739020
C           1.5981495    -1.7477949    -0.3004566
H           0.7735357    -1.0266109    -0.1977585
H           1.8549316    -2.1534880     0.6821258
H           1.2514801    -2.5560664    -0.9490059
O           2.7218556    -1.1861741    -0.9649021
C           5.7794147     1.0632515     0.7919461
H           6.5982075     1.6257490     1.2307447
C           4.5825259     0.9198262     1.4878019
H           4.4385162     1.3690929     2.4659039
C           3.5081758     0.2062029     0.9493930
O           2.3680980     0.1249031     1.7351441
H           1.5891753     0.2667736     1.1798567
C           3.6446852    -0.4019514    -0.3149481
C           4.8468330    -0.2314333    -1.0156523
H           4.9267221    -0.7070163    -1.9884654
C           5.9038814     0.4950549    -0.4775478
H           6.8247080     0.6030870    -1.0435591
17
301_C7H8O2_0-4-12-9 (0,) energy =    -421.9730832
C           1.5276518    -1.5876168    -0.4961176
H           1.2758201    -0.7478705    -1.1503250
H           1.0168300    -1.4759745     0.4735138
H           1.1739622    -2.5166576    -0.9490986
O           2.9274984    -1.7554516    -0.3415374
C           5.7619358     1.1152976     0.7654485
H           6.5243678     1.8412059     1.0320364
C           4.4234734     1.4940658     0.7267211
H           4.1149493     2.5081222     0.9628963
C           3.4150527     0.5869706     0.3877075
O           2.1266343     1.1011833     0.3398762
H           1.5189779     0.4929579     0.7814652
C           3.7614230    -0.7413002     0.0639743
C           5.1112787    -1.1161303     0.1276221
H           5.3510207    -2.1453829    -0.1215384
C           6.1045872    -0.2060185     0.4718356
H           7.1412441    -0.5289637     0.5035146
17
301_C7H8O2_0-4-12-9 (15,) energy =    -421.9739020
C           1.5445110    -1.5578011    -0.5541829
H           1.4481616    -0.7128870    -1.2418086
H           0.8810120    -1.4071892     0.3105289
H           1.2285595    -2.4748722    -1.0574263
O           2.8914229    -1.7866597    -0.1629372
C           5.7596053     1.1334678     0.6981573
H           6.5281608     1.8738864     0.8993340
C           4.4177950     1.5032857     0.7085761
H           4.1127816     2.5227563     0.9251624
C           3.4043450     0.5739774     0.4582255
O           2.1047565     1.0575898     0.4895347
H           1.5434587     0.4287463     0.9635522
C           3.7463340    -0.7618946     0.1657626
C           5.0997312    -1.1270292     0.1804236
H           5.3376116    -2.1621470    -0.0451219
C           6.0994605    -0.1975381     0.4474073
H           7.1394009    -0.5113506     0.4447704
17
301_C7H8O2_0-4-12-9 (30,) energy =    -421.9754408
C           1.5767348    -1.5388435    -0.5986408
H           1.6424916    -0.7290010    -1.3316717
H           0.7890684    -1.3039438     0.1306927
H           1.2966484    -2.4660973    -1.1053407
O           2.8314049    -1.8020498     0.0222063
C           5.7444327     1.1358875     0.6272947
H           6.5186546     1.8856940     0.7613106
C           4.4033261     1.5045345     0.6951632
H           4.1059711     2.5293844     0.8963329
C           3.3878671     0.5586892     0.5339309
O           2.0860890     1.0109161     0.6490209
H           1.5583001     0.3297620     1.0892140
C           3.7235555    -0.7831796     0.2691895
C           5.0748675    -1.1462480     0.2248192
H           5.3072693    -2.1868931     0.0198191
C           6.0808312    -0.2022865     0.4112734
H           7.1217938    -0.5093371     0.3674677
17
301_C7H8O2_0-4-12-9 (45,) energy =    -421.9775689
C           1.6436378    -1.4977749    -0.6788383
H           1.9061241    -0.8229521    -1.5009800
H           0.7960703    -1.0706973    -0.1290542
H           1.3363060    -2.4643358    -1.0863490
O           2.7709971    -1.7649021     0.1574813
C           5.7302514     1.1543658     0.5880356
H           6.5086540     1.9065954     0.6781947
C           4.3936146     1.5249491     0.7222858
H           4.1067114     2.5505748     0.9340376
C           3.3797131     0.5707509     0.6178766
O           2.0803749     0.9873521     0.8121240
H           1.5841381     0.2516870     1.2009303
C           3.7080563    -0.7696960     0.3453318
C           5.0522353    -1.1344130     0.2319901
H           5.2778984    -2.1754261     0.0212262
C           6.0626318    -0.1836330     0.3640633
H           7.1020446    -0.4844105     0.2701698
17
301_C7H8O2_0-4-12-9 (60,) energy =    -421.9809143
C           1.7200492    -1.5138314    -0.7557446
H           2.1899036    -1.5271366    -1.7476825
H           1.2006754    -0.5591777    -0.6283326
H           1.0050081    -2.3363447    -0.6835886
O           2.6980410    -1.7525975     0.2652034
C           5.6744889     1.1617696     0.5747158
H           6.4483974     1.9216696     0.6362380
C           4.3446507     1.5150256     0.8042233
H           4.0628152     2.5316877     1.0607988
C           3.3424318     0.5472722     0.7346005
O           2.0509675     0.9118080     1.0308847
H           1.5829345     0.1095226     1.3153435
C           3.6733456    -0.7809973     0.4119270
C           5.0069660    -1.1278114     0.1980721
H           5.2330834    -2.1600579    -0.0522132
C           6.0115389    -0.1635221     0.2918275
H           7.0475576    -0.4437411     0.1255630
17
301_C7H8O2_0-4-12-9 (75,) energy =    -421.9838092
C           1.8046923    -1.4910668    -0.7937112
H           2.3833661    -1.6795812    -1.7065366
H           1.3608308    -0.4903846    -0.8547233
H           1.0142403    -2.2396962    -0.7025881
O           2.6319426    -1.6375745     0.3694812
C           5.6993487     1.1819895     0.5746110
H           6.4908849     1.9246200     0.6235727
C           4.3876872     1.5588708     0.8684342
H           4.1393680     2.5760777     1.1552576
C           3.3676235     0.6096109     0.8117445
O           2.0870033     0.9670547     1.1349881
H           1.6011537     0.1387099     1.2938020
C           3.6660904    -0.7148684     0.4493697
C           4.9770463    -1.0874789     0.1677218
H           5.1765725    -2.1197625    -0.1047609
C           6.0009275    -0.1394365     0.2379935
H           7.0244626    -0.4307964     0.0216719
17
301_C7H8O2_0-4-12-9 (90,) energy =    -421.9853019
C           1.8561875    -1.5558311    -0.8225783
H           2.5168381    -1.9076823    -1.6243559
H           1.4776958    -0.5592982    -1.0839362
H           1.0195776    -2.2493566    -0.7088727
O           2.5435115    -1.5396268     0.4356608
C           5.6985635     1.1795451     0.5814795
H           6.5099188     1.9008201     0.6264005
C           4.4100314     1.5784326     0.9413806
H           4.1992428     2.5914747     1.2697311
C           3.3648045     0.6560759     0.8869729
O           2.1016957     1.0225159     1.2490987
H           1.5889665     0.1951345     1.3026818
C           3.6201856    -0.6607218     0.4702508
C           4.9070787    -1.0570254     0.1221903
H           5.0749371    -2.0856618    -0.1843139
C           5.9546391    -0.1337536     0.1800371
H           6.9617218    -0.4392752    -0.0876482
17
301_C7H8O2_0-4-12-9 (105,) energy =    -421.9859689
C           1.9047763    -1.6476942    -0.8525325
H           2.6252012    -2.1445118    -1.5133761
H           1.5942871    -0.7002973    -1.3119861
H           1.0345055    -2.2937697    -0.7150498
O           2.4608062    -1.4345677     0.4496146
C           5.7047194     1.1762079     0.5989546
H           6.5382063     1.8712121     0.6520897
C           4.4399788     1.5927576     1.0169924
H           4.2685257     2.5955532     1.3957478
C           3.3653579     0.7047371     0.9496315
O           2.1245993     1.0898253     1.3583574
H           1.5723934     0.2868031     1.3171382
C           3.5709967    -0.5979072     0.4662759
C           4.8352362    -1.0136052     0.0610113
H           4.9699909    -2.0323204    -0.2920251
C           5.9094268    -0.1222552     0.1255063
H           6.8985391    -0.4427736    -0.1876893
17
301_C7H8O2_0-4-12-9 (120,) energy =    -421.9863840
C           1.9508130    -1.7429616    -0.8688279
H           2.6798319    -2.4120032    -1.3409942
H           1.7777469    -0.8813230    -1.5261384
H           1.0152139    -2.2860770    -0.7169104
O           2.3871853    -1.3244067     0.4263445
C           5.7114462     1.1786042     0.6306097
H           6.5634574     1.8487382     0.7040528
C           4.4665823     1.6010235     1.0996232
H           4.3274040     2.5855871     1.5351879
C           3.3673608     0.7468641     1.0051806
O           2.1460849     1.1429263     1.4576612
H           1.5561134     0.3765871     1.3307632
C           3.5275132    -0.5323658     0.4452607
C           4.7721682    -0.9540642    -0.0127001
H           4.8811719    -1.9525968    -0.4264542
C           5.8699111    -0.0935930     0.0766363
H           6.8422040    -0.4203916    -0.2798607
17
301_C7H8O2_0-4-12-9 (135,) energy =    -421.9869274
C           1.9727009    -1.8224856    -0.8621728
H           2.6247653    -2.6800924    -1.0675262
H           2.0448030    -1.1077582    -1.6912008
H           0.9442415    -2.1781169    -0.7671781
O           2.2978755    -1.2021113     0.3802739
C           5.7085884     1.1700931     0.6657971
H           6.5808193     1.8103201     0.7635056
C           4.4832180     1.5971700     1.1820940
H           4.3784072     2.5586072     1.6751753
C           3.3583173     0.7837722     1.0560205
O           2.1557555     1.1911963     1.5479785
H           1.5275504     0.4728507     1.3484266
C           3.4707236    -0.4668003     0.4207386
C           4.6927015    -0.8893267    -0.0942420
H           4.7702125    -1.8569537    -0.5808259
C           5.8170243    -0.0661918     0.0281691
H           6.7707709    -0.3962075    -0.3728131
17
301_C7H8O2_0-4-12-9 (150,) energy =    -421.9878270
C           2.0219601    -1.8905049    -0.8479162
H           2.6206003    -2.8094422    -0.8122945
H           2.2516319    -1.3448919    -1.7716024
H           0.9634674    -2.1585616    -0.8290487
O           2.2474514    -1.0767561     0.2968728
C           5.7345666     1.1596690     0.6899536
H           6.6251639     1.7684386     0.8173894
C           4.5239102     1.5903104     1.2399679
H           4.4484541     2.5245158     1.7877663
C           3.3762684     0.8191873     1.0774591
O           2.1885908     1.2339548     1.6011599
H           1.5294001     0.5619004     1.3506596
C           3.4471287    -0.3974513     0.3708407
C           4.6515887    -0.8206309    -0.1833343
H           4.7016211    -1.7549308    -0.7334541
C           5.8007076    -0.0374384    -0.0207470
H           6.7403028    -0.3701671    -0.4518282
17
301_C7H8O2_0-4-12-9 (165,) energy =    -421.9886043
C           2.0535785    -1.9485332    -0.8201389
H           2.6513725    -2.8409934    -0.5943870
H           2.3435386    -1.5584534    -1.8041130
H           0.9962233    -2.2200683    -0.8291099
O           2.1996863    -0.9587984     0.1869945
C           5.7497452     1.1421772     0.7221582
H           6.6559888     1.7177444     0.8874959
C           4.5467394     1.5733349     1.2904029
H           4.4936595     2.4753638     1.8920988
C           3.3807633     0.8442558     1.0817839
O           2.2026214     1.2607037     1.6274686
H           1.5227953     0.6251475     1.3418733
C           3.4207576    -0.3309997     0.3040993
C           4.6169940    -0.7560135    -0.2661740
H           4.6488619    -1.6572528    -0.8693092
C           5.7863869    -0.0141077    -0.0531039
H           6.7187414    -0.3490795    -0.4979652
17
301_C7H8O2_0-4-12-9 (180,) energy =    -421.9888930
C           2.0593379    -1.9894997    -0.7825845
H           2.6689269    -2.8167354    -0.3965200
H           2.3715198    -1.7588463    -1.8093700
H           1.0077547    -2.2820640    -0.7803240
O           2.1528775    -0.8471909     0.0530633
C           5.7526203     1.1128157     0.7593036
H           6.6714679     1.6527761     0.9692616
C           4.5529017     1.5435217     1.3355739
H           4.5155744     2.4082004     1.9909638
C           3.3719090     0.8585227     1.0724662
O           2.1987604     1.2730679     1.6310352
H           1.5078967     0.6622910     1.3199146
C           3.3904851    -0.2683203     0.2246757
C           4.5842735    -0.6965270    -0.3483477
H           4.6031505    -1.5628423    -1.0008768
C           5.7698518     0.0002313    -0.0774081
H           6.6997239    -0.3365369    -0.5261959
