29
431_C13H14N2_0-1-2-3 (-165,) energy =    -613.3045567
C           2.5961004    -1.4320677    -0.4251529
C           1.4481909    -1.0891005     0.3414361
N           1.3946836     0.1439235     1.0524224
C           0.3572800     0.2748025     2.0657191
H           0.3757980    -0.5867391     2.7391141
H          -0.6612700     0.3726068     1.6479893
H           0.5598959     1.1749992     2.6558416
C           1.4502133     1.3479209     0.2150300
H           0.4925521     1.5300232    -0.3034093
H           2.2353416     1.2642916    -0.5356032
H           1.6710964     2.2165291     0.8453649
C           0.3659785    -1.9849284     0.3622171
H          -0.5221584    -1.7421733     0.9341164
C           0.3891527    -3.1741427    -0.3654822
H          -0.4670637    -3.8425869    -0.3219985
C           1.4893887    -3.4843189    -1.1605204
H           1.5126956    -4.3998802    -1.7446369
C           2.5742076    -2.6115215    -1.1833841
H           3.4507381    -2.8407513    -1.7801167
C           6.3323156     0.5891606    -0.5167525
H           7.3018505     1.0706804    -0.6025633
C           5.7434694    -0.0244787    -1.6212333
H           6.2506558    -0.0273768    -2.5854301
N           4.5545885    -0.6346912    -1.5891108
C           3.8749736    -0.6594660    -0.4254970
C           4.3947172    -0.0702996     0.7417086
H           3.8203069    -0.1044940     1.6594004
C           5.6353183     0.5565924     0.6915194
H           6.0549448     1.0094991     1.5863051
29
431_C13H14N2_0-1-2-3 (-150,) energy =    -613.3043449
C           2.6034670    -1.4545769    -0.4101834
C           1.4232230    -1.0634542     0.2740447
N           1.3804251     0.1687687     0.9914173
C           0.5083916     0.2295962     2.1534861
H           0.6385716    -0.6689490     2.7628261
H          -0.5653125     0.3315248     1.9081627
H           0.7878977     1.1010709     2.7572879
C           1.3028364     1.3702698     0.1632991
H           0.2964777     1.5185750    -0.2683790
H           2.0215668     1.3106233    -0.6562893
H           1.5481050     2.2494030     0.7705931
C           0.3098503    -1.9178045     0.2469401
H          -0.5963769    -1.6246613     0.7669938
C           0.3344213    -3.1240723    -0.4511182
H          -0.5440539    -3.7644265    -0.4501864
C           1.4760747    -3.4894172    -1.1617339
H           1.5061446    -4.4213098    -1.7194228
C           2.5888350    -2.6528138    -1.1408331
H           3.4887677    -2.9239964    -1.6822972
C           6.3346396     0.5793108    -0.4823000
H           7.3032537     1.0633999    -0.5644485
C           5.7889894    -0.1074027    -1.5659031
H           6.3300538    -0.1666462    -2.5096730
N           4.6038739    -0.7239857    -1.5364255
C           3.8825787    -0.6816082    -0.3981854
C           4.3580718    -0.0179642     0.7472361
H           3.7540463    -0.0013991     1.6452965
C           5.5962441     0.6147967     0.7006287
H           5.9816029     1.1250915     1.5798135
29
431_C13H14N2_0-1-2-3 (-135,) energy =    -613.3025815
C           2.6143558    -1.4522302    -0.3963604
C           1.4187125    -1.0158601     0.2232429
N           1.3839381     0.2279324     0.9379439
C           0.7187303     0.2044567     2.2322197
H           1.0522861    -0.6677536     2.8017433
H          -0.3860578     0.1785434     2.1784559
H           0.9948996     1.1081471     2.7894760
C           1.0258794     1.3799437     0.1178640
H          -0.0394847     1.3846067    -0.1792081
H           1.6338625     1.3889101    -0.7909901
H           1.2284953     2.3020654     0.6755567
C           0.2709423    -1.8172833     0.1391642
H          -0.6450228    -1.4763483     0.6133602
C           0.2795696    -3.0303357    -0.5460400
H          -0.6227094    -3.6349382    -0.5908034
C           1.4477913    -3.4514789    -1.1809961
H           1.4704691    -4.3915764    -1.7254734
C           2.5918293    -2.6624704    -1.1106083
H           3.5047404    -2.9752583    -1.6054970
C           6.3700397     0.5398599    -0.4387964
H           7.3447126     1.0127145    -0.5147807
C           5.8579073    -0.2078316    -1.4982031
H           6.4313688    -0.3277128    -2.4167551
N           4.6677311    -0.8138623    -1.4735437
C           3.9054256    -0.6987019    -0.3674401
C           4.3467335     0.0273023     0.7530916
H           3.7144774     0.1002684     1.6273167
C           5.5910414     0.6490657     0.7127418
H           5.9489917     1.2085323     1.5733927
29
431_C13H14N2_0-1-2-3 (-120,) energy =    -613.3012456
C           2.6519516    -1.4500936    -0.3967911
C           1.4429220    -0.9686160     0.1541228
N           1.3998738     0.2978002     0.8439804
C           0.9716481     0.2035667     2.2355770
H           1.5618897    -0.5601333     2.7518811
H          -0.0973499    -0.0495581     2.3638215
H           1.1455566     1.1672410     2.7297415
C           0.6970978     1.3408641     0.1031035
H          -0.3919638     1.1671301     0.0173633
H           1.1112846     1.4138170    -0.9066240
H           0.8468290     2.3032649     0.6066585
C           0.2709844    -1.7257633     0.0126018
H          -0.6547407    -1.3406806     0.4325646
C           0.2695388    -2.9471209    -0.6554961
H          -0.6507247    -3.5184202    -0.7466073
C           1.4589310    -3.4236526    -1.2092414
H           1.4780625    -4.3734235    -1.7370356
C           2.6255021    -2.6775068    -1.0852304
H           3.5508481    -3.0297497    -1.5272564
C           6.4495830     0.4618519    -0.3633760
H           7.4356435     0.9131908    -0.4209161
C           5.9722115    -0.3391010    -1.4001819
H           6.5848726    -0.5229860    -2.2821196
N           4.7708116    -0.9216167    -1.3956730
C           3.9596471    -0.7286315    -0.3358364
C           4.3644031     0.0525262     0.7603812
H           3.7011784     0.1874919     1.6026527
C           5.6210597     0.6509202     0.7416151
H           5.9493101     1.2543269     1.5841705
29
431_C13H14N2_0-1-2-3 (-105,) energy =    -613.3015606
C           2.5876945    -1.3623460    -0.5124958
C           1.3944170    -0.9092477     0.0944767
N           1.4034874     0.2589525     0.9430159
C           1.3042878    -0.0734742     2.3634073
H           2.0822782    -0.7960696     2.6261975
H           0.3248147    -0.5024872     2.6453624
H           1.4621168     0.8338451     2.9582516
C           0.4366054     1.2833927     0.5567043
H          -0.6174588     1.0034788     0.7382407
H           0.5474985     1.5127238    -0.5076330
H           0.6382343     2.1965183     1.1297062
C           0.2020676    -1.6159529    -0.1177439
H          -0.7087673    -1.2668098     0.3613160
C           0.1642826    -2.7545005    -0.9183445
H          -0.7740995    -3.2809766    -1.0727515
C           1.3416709    -3.2134117    -1.5106192
H           1.3322678    -4.1022765    -2.1357339
C           2.5327739    -2.5278636    -1.2990664
H           3.4564715    -2.8839169    -1.7415629
C           6.4711016     0.3335347    -0.1626014
H           7.4917218     0.6966717    -0.0862431
C           6.2082057    -1.0304687    -0.2828951
H           7.0260288    -1.7500226    -0.3027084
N           4.9794503    -1.5444858    -0.3787214
C           3.9223402    -0.7077399    -0.3532007
C           4.0942201     0.6834222    -0.2474154
H           3.2312533     1.3338832    -0.2336901
C           5.3817250     1.2034783    -0.1518860
H           5.5306110     2.2775174    -0.0742937
29
431_C13H14N2_0-1-2-3 (-90,) energy =    -613.3029326
C           2.5605565    -1.3665536    -0.5069008
C           1.3503156    -0.8772014     0.0409615
N           1.3592157     0.3061118     0.8588066
C           1.5524779     0.0112650     2.2796217
H           2.4373609    -0.6174815     2.4108582
H           0.6868328    -0.5094289     2.7282490
H           1.7118784     0.9477223     2.8267426
C           0.2368672     1.2159641     0.6528172
H          -0.7204864     0.8587567     1.0748377
H           0.0957331     1.3932663    -0.4171722
H           0.4674840     2.1733200     1.1352200
C           0.1533698    -1.5564866    -0.2271803
H          -0.7740632    -1.1827473     0.1960808
C           0.1307147    -2.7054526    -1.0153182
H          -0.8124803    -3.2087574    -1.2120949
C           1.3235653    -3.2065389    -1.5351182
H           1.3238760    -4.1046003    -2.1468260
C           2.5189764    -2.5448822    -1.2713540
H           3.4551428    -2.9265246    -1.6638603
C           6.4504936     0.2908901    -0.0665261
H           7.4725454     0.6440550     0.0337325
C           6.1729498    -1.0740917    -0.1258274
H           6.9799529    -1.8041094    -0.0727389
N           4.9416870    -1.5777218    -0.2470569
C           3.8978186    -0.7266490    -0.3108229
C           4.0848632     0.6663498    -0.2680854
H           3.2279115     1.3238653    -0.3206208
C           5.3745966     1.1745834    -0.1462848
H           5.5364073     2.2492374    -0.1185575
29
431_C13H14N2_0-1-2-3 (-75,) energy =    -613.3044479
C           2.5319875    -1.3757925    -0.4824510
C           1.3069294    -0.8476562     0.0020687
N           1.3060137     0.3323231     0.8095602
C           1.7578756     0.1124770     2.1860624
H           2.6914935    -0.4534525     2.1919696
H           1.0125729    -0.4390555     2.7864159
H           1.9404649     1.0800143     2.6675037
C           0.0949478     1.1413516     0.7743798
H          -0.7531506     0.7056008     1.3340000
H          -0.2184070     1.2989829    -0.2613591
H           0.3139690     2.1176756     1.2218071
C           0.1092508    -1.4961916    -0.3353395
H          -0.8325519    -1.1017700     0.0312557
C           0.1022815    -2.6515588    -1.1157167
H          -0.8433009    -3.1278536    -1.3622192
C           1.3059485    -3.1969562    -1.5567959
H           1.3161074    -4.1024599    -2.1570316
C           2.5017259    -2.5620271    -1.2314077
H           3.4484576    -2.9683771    -1.5707356
C           6.4210522     0.2669705     0.0087549
H           7.4422991     0.6183968     0.1222327
C           6.1337104    -1.0971769     0.0151859
H           6.9328291    -1.8280498     0.1343379
N           4.9026308    -1.5993874    -0.1180944
C           3.8694682    -0.7454105    -0.2627933
C           4.0664884     0.6470648    -0.2877773
H           3.2154118     1.3057981    -0.4026817
C           5.3555799     1.1526946    -0.1524866
H           5.5258128     2.2261144    -0.1777294
29
431_C13H14N2_0-1-2-3 (-60,) energy =    -613.3045268
C           2.5340655    -1.4120873    -0.4402236
C           1.2991188    -0.8425122    -0.0233183
N           1.2708141     0.3069061     0.8088882
C           1.9143567     0.1887801     2.1182087
H           2.8351442    -0.3884964     2.0485212
H           1.2542064    -0.3034708     2.8541816
H           2.1636976     1.1871269     2.4961109
C           0.0281504     1.0563341     0.8849177
H          -0.7546845     0.5589836     1.4867059
H          -0.3671037     1.2350360    -0.1188579
H           0.2337315     2.0268100     1.3501944
C           0.1053482    -1.4568347    -0.4405080
H          -0.8464654    -1.0439038    -0.1258273
C           0.1122992    -2.6114396    -1.2214068
H          -0.8319860    -3.0565960    -1.5248144
C           1.3208646    -3.2029744    -1.5812111
H           1.3396293    -4.1123817    -2.1749789
C           2.5119311    -2.6004437    -1.1848395
H           3.4660445    -3.0307667    -1.4704155
C           6.4218849     0.2295226     0.0484380
H           7.4425852     0.5827685     0.1606160
C           6.1283096    -1.1309901     0.1255790
H           6.9220305    -1.8566218     0.2999118
N           4.8974416    -1.6367496    -0.0019397
C           3.8721574    -0.7880847    -0.2136588
C           4.0758270     0.6007411    -0.3114820
H           3.2290204     1.2550863    -0.4802279
C           5.3635411     1.1095857    -0.1807173
H           5.5392838     2.1793247    -0.2622737
29
431_C13H14N2_0-1-2-3 (-45,) energy =    -613.3028663
C           2.5319170    -1.4463263    -0.4114379
C           1.2933859    -0.8673020    -0.0120561
N           1.2359356     0.2282353     0.8668987
C           2.0551794     0.2555828     2.0747207
H           2.7967281    -0.5412964     2.0590008
H           1.4267367     0.1098729     2.9683853
H           2.5808058     1.2136969     2.1795897
C          -0.0000641     0.9750827     0.9988378
H          -0.7553488     0.4673188     1.6254212
H          -0.4379034     1.1680706     0.0155362
H           0.2215964     1.9415664     1.4649575
C           0.1031979    -1.4525190    -0.4898598
H          -0.8534626    -1.0391895    -0.1910861
C           0.1202814    -2.5876615    -1.2956145
H          -0.8212394    -3.0094823    -1.6387210
C           1.3296028    -3.1976267    -1.6255382
H           1.3521310    -4.0959826    -2.2354574
C           2.5144881    -2.6207689    -1.1791653
H           3.4719634    -3.0553778    -1.4473604
C           6.4100737     0.2160409     0.0735252
H           7.4282890     0.5763286     0.1852466
C           6.1221605    -1.1435359     0.1818435
H           6.9179731    -1.8609279     0.3794669
N           4.8947626    -1.6593841     0.0581699
C           3.8674011    -0.8211095    -0.1820683
C           4.0665688     0.5658805    -0.3159239
H           3.2194795     1.2116424    -0.5191789
C           5.3498615     1.0853794    -0.1877018
H           5.5217187     2.1532640    -0.2974948
29
431_C13H14N2_0-1-2-3 (-30,) energy =    -613.3006788
C           2.5105298    -1.4457158    -0.3880376
C           1.2674373    -0.8666254     0.0013307
N           1.1708164     0.1614138     0.9427201
C           2.1147078     0.3205791     2.0380850
H           2.7649997    -0.5516688     2.1147518
H           1.5628672     0.4064783     2.9846750
H           2.7481845     1.2118783     1.9296614
C          -0.0630781     0.9107269     1.0839210
H          -0.8193000     0.3918941     1.6980542
H          -0.5016980     1.1228039     0.1044819
H           0.1565631     1.8701059     1.5639874
C           0.0847063    -1.4300462    -0.5302377
H          -0.8777087    -1.0216537    -0.2441321
C           0.1153157    -2.5436938    -1.3618344
H          -0.8208601    -2.9468184    -1.7404522
C           1.3271526    -3.1616728    -1.6724443
H           1.3573891    -4.0462681    -2.3016180
C           2.5022954    -2.6037060    -1.1827302
H           3.4640580    -3.0362843    -1.4396085
C           6.3818917     0.2301226     0.0949890
H           7.3980257     0.5960606     0.2071313
C           6.0922416    -1.1244548     0.2538191
H           6.8862288    -1.8316997     0.4914427
N           4.8673619    -1.6470780     0.1335845
C           3.8435883    -0.8197507    -0.1556660
C           4.0456282     0.5600003    -0.3482343
H           3.2042195     1.1952641    -0.6054011
C           5.3262094     1.0867214    -0.2200793
H           5.4999123     2.1488397    -0.3739744
29
431_C13H14N2_0-1-2-3 (-15,) energy =    -613.2981688
C           3.0303205    -1.4283545    -0.0949160
C           1.7258899    -1.2331625     0.4548270
N           1.2471688    -0.0218863     0.9345658
C           2.0757633     1.1307695     1.2364833
H           2.1414087     1.8408102     0.4024032
H           3.0880346     0.8155564     1.4965189
H           1.6583399     1.6441072     2.1112453
C          -0.1815390     0.1747791     1.1160750
H          -0.3993415     1.2461593     1.0878881
H          -0.5510775    -0.2196770     2.0766791
H          -0.7508248    -0.2984275     0.3091084
C           0.9086510    -2.3820676     0.6059733
H          -0.0822382    -2.2749092     1.0308858
C           1.3549934    -3.6568094     0.2850244
H           0.6871307    -4.5025095     0.4300613
C           2.6516073    -3.8542673    -0.1899190
H           3.0149315    -4.8466025    -0.4392030
C           3.4592368    -2.7382549    -0.3736616
H           4.4473598    -2.8644043    -0.8083659
C           5.6255471     1.5646493    -1.6234425
H           6.2472889     2.3341962    -2.0709446
C           4.2520478     1.5321741    -1.8634790
H           3.7898582     2.2830850    -2.5036222
N           3.4224424     0.6141514    -1.3558521
C           3.9408738    -0.3421198    -0.5589581
C           5.3135875    -0.3764792    -0.2483488
H           5.6957484    -1.1437376     0.4178461
C           6.1622608     0.5846714    -0.7882625
H           7.2240543     0.5730226    -0.5553516
29
431_C13H14N2_0-1-2-3 (0,) energy =    -613.2963436
C           2.9999335    -1.4169388    -0.0967082
C           1.6990350    -1.2297211     0.4701480
N           1.2291210    -0.0419788     1.0209031
C           2.0000118     1.1878640     1.0991503
H           1.9791556     1.7735146     0.1716443
H           3.0423164     0.9682766     1.3383456
H           1.5993710     1.7940000     1.9181053
C          -0.1964529     0.0906830     1.2917449
H          -0.4185498     1.1360444     1.5137141
H          -0.5112328    -0.5091066     2.1576966
H          -0.8090057    -0.2067790     0.4298656
C           0.8798313    -2.3832512     0.5839014
H          -0.1195334    -2.2901493     0.9886310
C           1.3257829    -3.6516261     0.2376570
H           0.6520290    -4.4968166     0.3560898
C           2.6219753    -3.8422104    -0.2376108
H           2.9851963    -4.8294889    -0.5060649
C           3.4267066    -2.7210421    -0.4021010
H           4.4144571    -2.8364513    -0.8408348
C           5.6450377     1.5400106    -1.6116627
H           6.2825348     2.2971293    -2.0582297
C           4.2855827     1.4859129    -1.9181682
H           3.8506722     2.2065908    -2.6099716
N           3.4381978     0.5803144    -1.4167498
C           3.9234404    -0.3367732    -0.5553604
C           5.2798262    -0.3502999    -0.1804186
H           5.6334983    -1.0911961     0.5299081
C           6.1477812     0.5966125    -0.7154847
H           7.1974604     0.6018314    -0.4327898
29
431_C13H14N2_0-1-2-3 (15,) energy =    -613.2979779
C           2.7187282    -1.4452994    -0.5090469
C           1.6885662    -1.3329539     0.4723994
N           1.2519347    -0.1220348     1.0075320
C           1.5472119     1.1792770     0.4352263
H           1.7697695     1.0871492    -0.6291114
H           2.3919445     1.6917720     0.9176047
H           0.6598705     1.8169604     0.5321225
C           0.4162315    -0.1133062     2.1965794
H           0.4701878     0.8743052     2.6630370
H           0.7656083    -0.8460855     2.9321820
H          -0.6423847    -0.3262096     1.9765350
C           0.9869452    -2.5152064     0.8156621
H           0.1947173    -2.4719472     1.5534556
C           1.2336608    -3.7258866     0.1808545
H           0.6609764    -4.6019805     0.4756169
C           2.1737865    -3.8101087    -0.8471869
H           2.3548287    -4.7467581    -1.3658051
C           2.9007793    -2.6712100    -1.1705939
H           3.6740271    -2.7128113    -1.9315983
C           5.8269485     1.3298963    -1.3230875
H           6.6291775     2.0105799    -1.5916239
C           5.1008733     0.6623740    -2.3089159
H           5.3348016     0.8171939    -3.3617005
N           4.0989453    -0.1867531    -2.0563100
C           3.7633584    -0.4141147    -0.7711919
C           4.4565311     0.1986198     0.2898635
H           4.1864474    -0.0366887     1.3146935
C           5.4943002     1.0810611     0.0090094
H           6.0434870     1.5577264     0.8171636
29
431_C13H14N2_0-1-2-3 (30,) energy =    -613.3006788
C           2.7185210    -1.4638208    -0.4945362
C           1.6985953    -1.3569984     0.4957043
N           1.3426077    -0.1439302     1.0907977
C           1.4530202     1.1344221     0.4054395
H           1.6678568     0.9853987    -0.6534353
H           2.2372358     1.7784819     0.8269319
H           0.4958393     1.6697890     0.4770245
C           0.5223103    -0.1285382     2.2869512
H           0.6615930     0.8281303     2.8012459
H           0.8263942    -0.9224196     2.9753914
H          -0.5550585    -0.2446594     2.0771692
C           0.9643518    -2.5232058     0.8114797
H           0.1731156    -2.4732314     1.5506204
C           1.1821967    -3.7258083     0.1489119
H           0.5875236    -4.5945856     0.4207133
C           2.1212765    -3.8067676    -0.8799201
H           2.2802130    -4.7361920    -1.4186150
C           2.8731070    -2.6777932    -1.1836820
H           3.6400454    -2.7190108    -1.9506262
C           5.8217797     1.3232615    -1.2887654
H           6.6251786     2.0044949    -1.5523582
C           5.1448718     0.6067298    -2.2748613
H           5.4176771     0.7228597    -3.3232749
N           4.1457291    -0.2466557    -2.0271591
C           3.7610553    -0.4286704    -0.7484300
C           4.3981774     0.2413124     0.3130842
H           4.0815408     0.0533589     1.3339049
C           5.4360440     1.1248907     0.0376446
H           5.9436555     1.6436029     0.8471041
29
431_C13H14N2_0-1-2-3 (45,) energy =    -613.3028663
C           2.7485045    -1.4731812    -0.4990728
C           1.7260701    -1.3570941     0.4857658
N           1.4548944    -0.1393366     1.1335124
C           1.3686810     1.1036419     0.3730466
H           1.7282056     0.9618965    -0.6446963
H           1.9621132     1.9002076     0.8405732
H           0.3225841     1.4456207     0.3134911
C           0.6377896    -0.1330854     2.3315118
H           0.7886939     0.8177269     2.8546536
H           0.9396412    -0.9397056     3.0053690
H          -0.4432684    -0.2336745     2.1263765
C           0.9484056    -2.4975968     0.7718385
H           0.1553184    -2.4333061     1.5081719
C           1.1348932    -3.6976554     0.0912834
H           0.5100692    -4.5518983     0.3402420
C           2.0856666    -3.7898194    -0.9240406
H           2.2236372    -4.7152097    -1.4755565
C           2.8756698    -2.6793775    -1.2047160
H           3.6455178    -2.7318627    -1.9677017
C           5.8522372     1.3109171    -1.3084215
H           6.6559813     1.9897230    -1.5772681
C           5.2051245     0.5545306    -2.2842247
H           5.5004788     0.6362308    -3.3297420
N           4.2079249    -0.2988382    -2.0287338
C           3.7944671    -0.4397233    -0.7539466
C           4.3965935     0.2769483     0.2973195
H           4.0466302     0.1328141     1.3135068
C           5.4345259     1.1577788     0.0144868
H           5.9161692     1.7118565     0.8163453
29
431_C13H14N2_0-1-2-3 (60,) energy =    -613.3045269
C           2.7763619    -1.4757121    -0.4641572
C           1.7438155    -1.3500297     0.5060530
N           1.5369801    -0.1270443     1.1960360
C           1.2181937     1.0449109     0.3791294
H           1.8046144     1.0507516    -0.5384881
H           1.4506566     1.9575895     0.9400710
H           0.1487827     1.0719956     0.1045252
C           0.7485112    -0.1639830     2.4161136
H           0.8887402     0.7819193     2.9510637
H           1.0909476    -0.9766928     3.0626202
H          -0.3359721    -0.2884706     2.2408012
C           0.9197784    -2.4620712     0.7525715
H           0.1209701    -2.3838800     1.4814635
C           1.0785837    -3.6579526     0.0542516
H           0.4219310    -4.4960404     0.2740487
C           2.0514143    -3.7630090    -0.9370057
H           2.1740445    -4.6836732    -1.5002760
C           2.8826314    -2.6738919    -1.1854155
H           3.6613800    -2.7384443    -1.9380450
C           5.8794764     1.3039767    -1.2959868
H           6.6828953     1.9802963    -1.5722054
C           5.2465486     0.5215174    -2.2605098
H           5.5517623     0.5803006    -3.3046947
N           4.2517182    -0.3307487    -1.9940140
C           3.8256118    -0.4439478    -0.7204834
C           4.4101094     0.3025041     0.3192495
H           4.0419739     0.1887606     1.3317996
C           5.4470222     1.1814092     0.0250348
H           5.9152552     1.7591994     0.8180045
29
431_C13H14N2_0-1-2-3 (75,) energy =    -613.3044478
C           2.7873129    -1.4879751    -0.4053163
C           1.7081664    -1.3260153     0.5023366
N           1.5452947    -0.0927513     1.2075902
C           1.0191080     0.9991582     0.3835948
H           1.5792348     1.0718150    -0.5507183
H           1.1285214     1.9466156     0.9234996
H          -0.0490104     0.8596875     0.1393682
C           0.8562753    -0.1644520     2.4893938
H           1.0143449     0.7793227     3.0237397
H           1.2729968    -0.9762382     3.0920835
H          -0.2355561    -0.3161236     2.4051528
C           0.8217997    -2.3959092     0.6979616
H          -0.0071459    -2.2823172     1.3885005
C           0.9691817    -3.5985071     0.0079557
H           0.2670239    -4.4092033     0.1853676
C           2.0016303    -3.7453744    -0.9157822
H           2.1226032    -4.6730160    -1.4682144
C           2.8903531    -2.6925838    -1.1175634
H           3.7041456    -2.7902673    -1.8280288
C           5.9011659     1.2844312    -1.2301912
H           6.7068514     1.9579546    -1.5068519
C           5.3168112     0.4478277    -2.1800482
H           5.6627538     0.4602215    -3.2130769
N           4.3227056    -0.4035270    -1.9111486
C           3.8456057    -0.4614124    -0.6515140
C           4.3795360     0.3409650     0.3729525
H           3.9719196     0.2724766     1.3732492
C           5.4176740     1.2185677     0.0765755
H           5.8467779     1.8398595     0.8587101
29
431_C13H14N2_0-1-2-3 (90,) energy =    -613.3029326
C           2.8259287    -1.4903193    -0.4046670
C           1.7098871    -1.2952736     0.4442638
N           1.5488583    -0.0483181     1.1431663
C           0.7800295     0.9347210     0.3779257
H           1.2099597     1.0452825    -0.6213028
H           0.8284593     1.9066792     0.8825658
H          -0.2832332     0.6529525     0.2693175
C           1.0560695    -0.1591793     2.5123981
H           1.2017138     0.8032663     3.0172871
H           1.6266325    -0.9215376     3.0504392
H          -0.0178077    -0.4103012     2.5894332
C           0.7746069    -2.3291158     0.5940340
H          -0.0830270    -2.1778263     1.2425199
C           0.9167809    -3.5408246    -0.0792915
H           0.1797459    -4.3276219     0.0599379
C           1.9999125    -3.7279351    -0.9371780
H           2.1221456    -4.6647329    -1.4739898
C           2.9319222    -2.7073669    -1.0989947
H           3.7759586    -2.8365003    -1.7676164
C           5.9733246     1.2537170    -1.2028999
H           6.7874770     1.9193746    -1.4738843
C           5.4334184     0.3730939    -2.1392285
H           5.8233518     0.3419924    -3.1560729
N           4.4320647    -0.4707072    -1.8752409
C           3.9002114    -0.4762008    -0.6362370
C           4.3882896     0.3712445     0.3741430
H           3.9409097     0.3447139     1.3583265
C           5.4350928     1.2409014     0.0835521
H           5.8280800     1.8976581     0.8555979
29
431_C13H14N2_0-1-2-3 (105,) energy =    -613.3015606
C           2.8283420    -1.4723714    -0.4045970
C           1.6831212    -1.2435867     0.3914237
N           1.5041945     0.0184977     1.0696206
C           0.5027407     0.8683208     0.4271141
H           0.7468160     0.9858573    -0.6326452
H           0.5164832     1.8594834     0.8954929
H          -0.5251377     0.4674554     0.5025273
C           1.2699184    -0.1051450     2.5060881
H           1.3313816     0.8898953     2.9631366
H           2.0428880    -0.7380927     2.9528621
H           0.2843821    -0.5312859     2.7696758
C           0.7094296    -2.2464942     0.5019357
H          -0.1729292    -2.0577391     1.1075972
C           0.8460389    -3.4681441    -0.1520293
H           0.0802718    -4.2321589    -0.0449869
C           1.9689540    -3.6953357    -0.9489546
H           2.0914918    -4.6410651    -1.4700455
C           2.9363423    -2.7045933    -1.0755312
H           3.8053320    -2.8640199    -1.7041920
C           6.0379454     1.2154099    -1.1481924
H           6.8685162     1.8660639    -1.4053970
C           5.5422226     0.2959093    -2.0717084
H           5.9840812     0.2184855    -3.0645606
N           4.5239561    -0.5313637    -1.8228111
C           3.9277475    -0.4811815    -0.6143890
C           4.3699786     0.4062693     0.3820692
H           3.8785389     0.4244547     1.3444403
C           5.4348233     1.2596367     0.1079761
H           5.7909705     1.9480573     0.8702085
29
431_C13H14N2_0-1-2-3 (120,) energy =    -613.3012449
C           2.6783070    -1.4223006    -0.5294405
C           1.5600436    -1.2225064     0.3111190
N           1.4632550    -0.0476200     1.1427861
C           0.2958938     0.7828000     0.8662560
H           0.2390878     0.9937677    -0.2063487
H           0.3993169     1.7350978     1.4006304
H          -0.6648601     0.3295387     1.1741998
C           1.6393124    -0.3250107     2.5650121
H           1.7160161     0.6233804     3.1098598
H           2.5674940    -0.8836390     2.7163627
H           0.8102718    -0.9069910     3.0095476
C           0.5432143    -2.1875924     0.3468476
H          -0.3073434    -2.0271781     1.0044863
C           0.6054939    -3.3397800    -0.4320051
H          -0.1987792    -4.0698579    -0.3910139
C           1.7116199    -3.5467840    -1.2579269
H           1.7808606    -4.4409573    -1.8716664
C           2.7316864    -2.6027877    -1.2941725
H           3.6039015    -2.7622903    -1.9182969
C           6.0776062     1.0973416    -0.9498194
H           6.9865260     1.6783445    -1.0749630
C           6.1042972    -0.2942274    -1.0343539
H           7.0406117    -0.8162102    -1.2287650
N           5.0262052    -1.0682750    -0.8880782
C           3.8367405    -0.4840406    -0.6386074
C           3.7140960     0.9134489    -0.5507807
H           2.7496560     1.3609118    -0.3580085
C           4.8472247     1.7064330    -0.7083307
H           4.7668827     2.7888064    -0.6471956
29
431_C13H14N2_0-1-2-3 (135,) energy =    -613.3025812
C           2.6496225    -1.4374371    -0.5134315
C           1.4898055    -1.2063304     0.2644666
N           1.3778767    -0.0219058     1.0663816
C           0.1046296     0.6800478     1.0001396
H          -0.2113087     0.7715834    -0.0429750
H           0.2336722     1.6882983     1.4127800
H          -0.7136370     0.1970949     1.5669016
C           1.8963630    -0.1633984     2.4225471
H           1.9779337     0.8263891     2.8873941
H           2.8938641    -0.6102125     2.3910925
H           1.2554937    -0.7941845     3.0664664
C           0.4460231    -2.1423585     0.2333740
H          -0.4408270    -1.9623423     0.8344159
C           0.5284834    -3.2977376    -0.5407748
H          -0.2978387    -4.0039501    -0.5508361
C           1.6807260    -3.5431840    -1.2874110
H           1.7644023    -4.4424162    -1.8916704
C           2.7263002    -2.6253523    -1.2605567
H           3.6304642    -2.8072659    -1.8311829
C           6.0809551     1.0527368    -0.8248405
H           6.9979893     1.6263698    -0.9214936
C           6.1099129    -0.3410726    -0.8389743
H           7.0548069    -0.8723474    -0.9481330
N           5.0226035    -1.1083672    -0.7232006
C           3.8220780    -0.5119816    -0.5779944
C           3.6972851     0.8884781    -0.5632915
H           2.7208901     1.3385250    -0.4469743
C           4.8394841     1.6733804    -0.6894664
H           4.7588357     2.7575013    -0.6866140
29
431_C13H14N2_0-1-2-3 (150,) energy =    -613.3043448
C           2.6492171    -1.4531069    -0.5052170
C           1.4507768    -1.1905806     0.2081297
N           1.3286210    -0.0127828     1.0036519
C          -0.0026577     0.5538497     1.1492651
H          -0.5012273     0.5855321     0.1766115
H           0.0912916     1.5800020     1.5239049
H          -0.6527104     0.0050742     1.8561619
C           2.0765768    -0.0278923     2.2589437
H           2.1446774     0.9915729     2.6563100
H           3.0902125    -0.3964004     2.0897881
H           1.5991954    -0.6658127     3.0246331
C           0.3859255    -2.0987784     0.1011031
H          -0.5331536    -1.9049692     0.6445796
C           0.4899831    -3.2552114    -0.6701243
H          -0.3541931    -3.9371445    -0.7341944
C           1.6813207    -3.5389065    -1.3350204
H           1.7808571    -4.4418676    -1.9309181
C           2.7445984    -2.6450287    -1.2401044
H           3.6772375    -2.8456559    -1.7563833
C           6.0907264     1.0272864    -0.7629303
H           7.0095904     1.6000910    -0.8459128
C           6.1238512    -0.3653344    -0.7080293
H           7.0744930    -0.8960013    -0.7484763
N           5.0347291    -1.1325625    -0.6045067
C           3.8277875    -0.5348653    -0.5438825
C           3.6985993     0.8646511    -0.6000962
H           2.7150577     1.3136168    -0.5480436
C           4.8426597     1.6482804    -0.7126107
H           4.7593804     2.7309347    -0.7654388
29
431_C13H14N2_0-1-2-3 (165,) energy =    -613.3045599
C           2.6551139    -1.4544764    -0.4542642
C           1.4207195    -1.1357843     0.1760535
N           1.2985408     0.0364555     0.9751834
C          -0.0510380     0.4718908     1.3042024
H          -0.6630838     0.5223740     0.3993626
H           0.0040037     1.4767192     1.7367836
H          -0.5604122    -0.1793175     2.0376948
C           2.1547146     0.0733718     2.1663876
H           2.2094788     1.1013779     2.5419728
H           3.1655019    -0.2565584     1.9296102
H           1.7603069    -0.5697769     2.9725909
C           0.3368447    -2.0137071     0.0061655
H          -0.6112179    -1.7939833     0.4834177
C           0.4569516    -3.1866300    -0.7381839
H          -0.4051618    -3.8396908    -0.8482387
C           1.6800889    -3.5277350    -1.3094879
H           1.7909723    -4.4465489    -1.8782453
C           2.7607741    -2.6625902    -1.1584409
H           3.7187087    -2.8973559    -1.6102882
C           6.1191640     0.9910208    -0.7188187
H           7.0427481     1.5559966    -0.8025964
C           6.1449134    -0.3946722    -0.5690868
H           7.0946826    -0.9272459    -0.5342507
N           5.0497183    -1.1532121    -0.4594294
C           3.8444609    -0.5508967    -0.4899386
C           3.7224132     0.8423582    -0.6433029
H           2.7383108     1.2947352    -0.6597645
C           4.8723453     1.6159732    -0.7604026
H           4.7955557     2.6928716    -0.8878925
29
431_C13H14N2_0-1-2-3 (180,) energy =    -613.3020866
C           2.6485137    -1.4497861    -0.4140393
C           1.3848842    -1.0801818     0.1315825
N           1.2437363     0.0766059     0.9509227
C          -0.0986341     0.3537567     1.4520296
H          -0.8077228     0.4493757     0.6247192
H          -0.0766437     1.3086852     1.9856307
H          -0.4698737    -0.4182367     2.1486294
C           2.1832331     0.1574331     2.0833781
H           2.1631714     1.1741205     2.4900348
H           3.2027742    -0.0629180     1.7783419
H           1.9035809    -0.5443476     2.8876102
C           0.2914428    -1.9338125    -0.1054270
H          -0.6829055    -1.6900131     0.2985891
C           0.4286473    -3.1217689    -0.8224997
H          -0.4451573    -3.7484532    -0.9825333
C           1.6768241    -3.5147391    -1.2961042
H           1.8001642    -4.4490362    -1.8360758
C           2.7662072    -2.6733106    -1.0887270
H           3.7452495    -2.9366978    -1.4750627
C           6.1280138     0.9668330    -0.7233624
H           7.0544896     1.5252709    -0.8177860
C           6.1475150    -0.4072077    -0.4896500
H           7.0951078    -0.9368952    -0.3981569
N           5.0485664    -1.1581472    -0.3623292
C           3.8463095    -0.5581729    -0.4601308
C           3.7303403     0.8237864    -0.7002707
H           2.7471379     1.2751901    -0.7681336
C           4.8836755     1.5890835    -0.8334018
H           4.8121507     2.6565458    -1.0262797
