29
431_C13H14N2_1-0-24-25 (-165,) energy =    -613.2951467
C           2.4745253    -1.1688561    -0.6640647
C           1.4740367    -1.1726214     0.3571269
N           1.4963723    -0.2617218     1.4530853
C           0.2085879     0.2670147     1.8791581
H          -0.3780244     0.5715317     1.0078860
H           0.3882221     1.1531812     2.4997364
H          -0.3994342    -0.4342465     2.4821330
C           2.3036326    -0.6872857     2.5942019
H           2.4553597     0.1661426     3.2655506
H           3.2814799    -1.0220976     2.2530929
H           1.8149858    -1.4973433     3.1676276
C           0.3841084    -2.0523732     0.2279537
H          -0.3818853    -2.0422818     0.9964804
C           0.2616449    -2.9432337    -0.8325568
H          -0.5934414    -3.6122765    -0.8850443
C           1.2598253    -2.9838351    -1.8026245
H           1.2073918    -3.6887183    -2.6276052
C           2.3403989    -2.1157101    -1.7004754
H           3.1193163    -2.1924222    -2.4500381
C           5.9578631     1.3035897    -0.6672028
H           6.8428753     1.9299670    -0.6090816
C           5.1571229     1.0897579     0.4516137
H           5.4128711     1.5481134     1.4066255
N           4.0630328     0.3240620     0.4538194
C           3.6713111    -0.2722424    -0.6876282
C           4.4324050    -0.1101876    -1.8671939
H           4.1119703    -0.5516712    -2.8028877
C           5.5750268     0.6800125    -1.8540840
H           6.1552044     0.8107034    -2.7638808
29
431_C13H14N2_1-0-24-25 (-150,) energy =    -613.2984798
C           2.5135795    -1.2106068    -0.6436001
C           1.5092990    -1.1957612     0.3639582
N           1.5271358    -0.2315821     1.4211766
C           0.2406072     0.3793430     1.7307848
H          -0.2574596     0.6880936     0.8072063
H           0.4189240     1.2729870     2.3408261
H          -0.4516167    -0.2706496     2.2991869
C           2.2165027    -0.6777621     2.6312015
H           2.3422355     0.1779092     3.3053998
H           3.2059101    -1.0498856     2.3689917
H           1.6535729    -1.4622440     3.1716900
C           0.4387380    -2.0985647     0.2598514
H          -0.3349814    -2.0777846     1.0212742
C           0.3420173    -3.0181629    -0.7813038
H          -0.4986410    -3.7060734    -0.8223701
C           1.3395105    -3.0579545    -1.7529640
H           1.2966670    -3.7796087    -2.5640081
C           2.4052804    -2.1672255    -1.6705056
H           3.1932125    -2.2270224    -2.4148473
C           5.9738448     1.2646743    -0.6808283
H           6.8660017     1.8819184    -0.6347375
C           5.3465767     0.8313692     0.4860851
H           5.7507347     1.1036460     1.4605348
N           4.2516326     0.0665873     0.5068480
C           3.6964908    -0.3024939    -0.6620186
C           4.2705680     0.0847126    -1.8896088
H           3.7999133    -0.1962162    -2.8255055
C           5.4146766     0.8750095    -1.8969590
H           5.8580678     1.1865127    -2.8391753
29
431_C13H14N2_1-0-24-25 (-135,) energy =    -613.3002836
C           2.5466951    -1.2855997    -0.5865927
C           1.5065560    -1.2122830     0.3759266
N           1.5269018    -0.2138545     1.4012121
C           0.2466111     0.4306428     1.6668941
H          -0.2270263     0.7218530     0.7248855
H           0.4291786     1.3377361     2.2552242
H          -0.4681132    -0.1912284     2.2386011
C           2.1815617    -0.6406426     2.6394503
H           2.3106881     0.2315551     3.2914833
H           3.1674852    -1.0414946     2.4072549
H           1.5901177    -1.3966820     3.1896897
C           0.4232525    -2.0975091     0.2619703
H          -0.3805656    -2.0391139     0.9896572
C           0.3518327    -3.0469315    -0.7556809
H          -0.5002963    -3.7197665    -0.8092437
C           1.3811023    -3.1332178    -1.6906880
H           1.3480237    -3.8743293    -2.4844605
C           2.4597110    -2.2569733    -1.5979534
H           3.2676453    -2.3286989    -2.3210025
C           5.9487237     1.2562904    -0.6604278
H           6.8306430     1.8889925    -0.6280423
C           5.4636183     0.6546392     0.5003410
H           5.9696654     0.8104704     1.4523526
N           4.3878267    -0.1371012     0.5377959
C           3.7201200    -0.3655268    -0.6070336
C           4.1395549     0.1982117    -1.8259532
H           3.5711292     0.0125908    -2.7315710
C           5.2641531     1.0173776    -1.8510231
H           5.5956194     1.4664274    -2.7837175
29
431_C13H14N2_1-0-24-25 (-120,) energy =    -613.3006158
C           2.5682785    -1.3503954    -0.5488781
C           1.4901494    -1.2192185     0.3608905
N           1.5041625    -0.1853339     1.3490626
C           0.2178670     0.4473043     1.6125423
H          -0.2752770     0.6985215     0.6690144
H           0.3939620     1.3763202     2.1673794
H          -0.4758918    -0.1677046     2.2162337
C           2.1853809    -0.5536113     2.5939459
H           2.3134933     0.3459157     3.2078834
H           3.1713177    -0.9562462     2.3628587
H           1.6105549    -1.2926930     3.1829447
C           0.3957639    -2.0882018     0.2318361
H          -0.4386330    -1.9915637     0.9196683
C           0.3532108    -3.0706267    -0.7569534
H          -0.5092606    -3.7286916    -0.8267926
C           1.4184096    -3.2073706    -1.6440528
H           1.4015044    -3.9702649    -2.4174136
C           2.5087704    -2.3453513    -1.5352454
H           3.3395211    -2.4383789    -2.2301435
C           5.9460920     1.2212969    -0.6321186
H           6.8271516     1.8555703    -0.6070913
C           5.5948181     0.4530854     0.4775706
H           6.2041561     0.4799192     1.3800289
N           4.5279366    -0.3516464     0.5204323
C           3.7401294    -0.4229807    -0.5664520
C           4.0165013     0.3146295    -1.7296634
H           3.3525894     0.2389348    -2.5850635
C           5.1323133     1.1467513    -1.7613447
H           5.3590057     1.7295434    -2.6504244
29
431_C13H14N2_1-0-24-25 (-105,) energy =    -613.3005233
C           2.5686927    -1.3920423    -0.5260824
C           1.4560749    -1.2142757     0.3308348
N           1.4523798    -0.1426731     1.2734017
C           0.1519310     0.4417277     1.5699609
H          -0.3934452     0.6329422     0.6412478
H           0.3083842     1.3986304     2.0812517
H          -0.4835376    -0.1811339     2.2271787
C           2.2135613    -0.4059539     2.4991049
H           2.3454355     0.5349904     3.0464506
H           3.1974651    -0.8023248     2.2464062
H           1.6945845    -1.1207713     3.1643179
C           0.3591487    -2.0790468     0.1917643
H          -0.5037385    -1.9515666     0.8376949
C           0.3541153    -3.1016899    -0.7569867
H          -0.5111486    -3.7547753    -0.8384858
C           1.4568055    -3.2870742    -1.5870916
H           1.4654908    -4.0813007    -2.3283148
C           2.5498549    -2.4280962    -1.4671139
H           3.4072931    -2.5502384    -2.1241652
C           5.9481248     1.1800015    -0.6054567
H           6.8372211     1.8033109    -0.5884225
C           5.7218602     0.2427382     0.4017685
H           6.4367432     0.1256493     1.2150848
N           4.6530864    -0.5614166     0.4461551
C           3.7398500    -0.4566847    -0.5347446
C           3.8846814     0.4565396    -1.5901530
H           3.1244446     0.5091559    -2.3631689
C           5.0024137     1.2865712    -1.6240687
H           5.1319195     2.0033974    -2.4308463
29
431_C13H14N2_1-0-24-25 (-90,) energy =    -613.3007657
C           2.5630818    -1.4236778    -0.5234377
C           1.4252408    -1.2071926     0.2889214
N           1.4105819    -0.1037294     1.1896204
C           0.1050059     0.4497374     1.5155484
H          -0.4785513     0.5966982     0.6021311
H           0.2488692     1.4255580     1.9934013
H          -0.4858616    -0.1739377     2.2122333
C           2.2371318    -0.2743023     2.3885680
H           2.3809866     0.7009317     2.8684570
H           3.2140241    -0.6790849     2.1213456
H           1.7646882    -0.9527477     3.1223473
C           0.3276790    -2.0715662     0.1495293
H          -0.5557179    -1.9175863     0.7606845
C           0.3546823    -3.1350009    -0.7530960
H          -0.5106053    -3.7876262    -0.8381710
C           1.4888098    -3.3665045    -1.5277646
H           1.5213058    -4.1961617    -2.2283309
C           2.5826381    -2.5082313    -1.4056367
H           3.4655742    -2.6649656    -2.0199671
C           5.9621062     1.1206463    -0.5835145
H           6.8637104     1.7259529    -0.5737385
C           5.8399330     0.0209771     0.2644738
H           6.6478360    -0.2417136     0.9460159
N           4.7624551    -0.7735510     0.3057176
C           3.7372321    -0.4900721    -0.5166524
C           3.7709687     0.5949104    -1.4045139
H           2.9215477     0.7846872    -2.0530859
C           4.8979197     1.4121409    -1.4363463
H           4.9458781     2.2587356    -2.1164189
29
431_C13H14N2_1-0-24-25 (-75,) energy =    -613.3018159
C           2.5715739    -1.4431375    -0.5330211
C           1.4121360    -1.2014476     0.2417664
N           1.3737256    -0.0702472     1.1040671
C           0.0588015     0.4504686     1.4429775
H          -0.5477662     0.5548687     0.5388002
H           0.1809148     1.4425004     1.8924010
H          -0.4968283    -0.1739228     2.1672534
C           2.2414830    -0.1504352     2.2821396
H           2.3698357     0.8522115     2.7061646
H           3.2231765    -0.5399066     2.0105438
H           1.8156868    -0.8042202     3.0646335
C           0.3199160    -2.0732103     0.1040676
H          -0.5797471    -1.9031466     0.6862015
C           0.3770829    -3.1708541    -0.7550931
H          -0.4845377    -3.8282417    -0.8406987
C           1.5370293    -3.4341654    -1.4803352
H           1.5934596    -4.2943124    -2.1414328
C           2.6265078    -2.5713609    -1.3567561
H           3.5339494    -2.7551899    -1.9255046
C           5.9985247     1.0563852    -0.5956696
H           6.9125216     1.6428939    -0.6030400
C           5.9595572    -0.1841593     0.0383150
H           6.8458654    -0.5776061     0.5343211
N           4.8721129    -0.9656919     0.0844591
C           3.7509750    -0.5205664    -0.5100972
C           3.6967948     0.7127108    -1.1769873
H           2.7714054     1.0281230    -1.6478227
C           4.8353548     1.5119507    -1.2174476
H           4.8181111     2.4701294    -1.7304206
29
431_C13H14N2_1-0-24-25 (-60,) energy =    -613.3034919
C           2.5966009    -1.4473685    -0.5277214
C           1.4119617    -1.1835861     0.2038311
N           1.3403641    -0.0291048     1.0327874
C           0.0124500     0.4722099     1.3499064
H          -0.5912327     0.5367781     0.4402319
H           0.1101342     1.4793678     1.7706470
H          -0.5330015    -0.1435854     2.0889163
C           2.2047194    -0.0486144     2.2152663
H           2.2992727     0.9685980     2.6121976
H           3.2008384    -0.4103600     1.9582363
H           1.7985297    -0.6952133     3.0136113
C           0.3279303    -2.0651610     0.0649415
H          -0.5880588    -1.8805744     0.6160097
C           0.4142103    -3.1938792    -0.7504130
H          -0.4428568    -3.8569383    -0.8378446
C           1.5982293    -3.4813425    -1.4259786
H           1.6790785    -4.3667838    -2.0500864
C           2.6804654    -2.6112967    -1.2995923
H           3.6098379    -2.8138376    -1.8236640
C           6.0323329     1.0352723    -0.6360066
H           6.9502222     1.6147765    -0.6686420
C           6.0504859    -0.2971034    -0.2284634
H           6.9868293    -0.7718093     0.0621641
N           4.9612223    -1.0743069    -0.1665829
C           3.7778738    -0.5327820    -0.5084577
C           3.6639193     0.7986218    -0.9424182
H           2.6909867     1.1921438    -1.2148884
C           4.8054974     1.5906997    -1.0037991
H           4.7418573     2.6221226    -1.3410721
29
431_C13H14N2_1-0-24-25 (-45,) energy =    -613.3046057
C           2.6222405    -1.4529924    -0.4807535
C           1.4133553    -1.1635211     0.2049395
N           1.3104793     0.0079337     1.0081340
C          -0.0291199     0.5011364     1.2886441
H          -0.6133339     0.5465881     0.3653049
H           0.0504530     1.5152512     1.6961183
H          -0.5845243    -0.1085930     2.0250121
C           2.1484584     0.0200512     2.2097890
H           2.2258271     1.0454633     2.5889492
H           3.1534171    -0.3359145     1.9812550
H           1.7301377    -0.6148461     3.0109806
C           0.3332117    -2.0497367     0.0645242
H          -0.5970858    -1.8463617     0.5835870
C           0.4381505    -3.2066859    -0.7071678
H          -0.4185152    -3.8700802    -0.7958154
C           1.6410452    -3.5188619    -1.3364111
H           1.7388415    -4.4250135    -1.9275185
C           2.7190753    -2.6454017    -1.2105687
H           3.6622960    -2.8635071    -1.7009621
C           6.0713383     1.0118825    -0.6965838
H           6.9921318     1.5834953    -0.7653041
C           6.1052089    -0.3662470    -0.4915625
H           7.0580320    -0.8859978    -0.3979648
N           5.0133118    -1.1333850    -0.3974231
C           3.8066319    -0.5435329    -0.4988854
C           3.6757203     0.8399203    -0.7155350
H           2.6884153     1.2790152    -0.7922565
C           4.8215918     1.6218018    -0.8148507
H           4.7408405     2.6917714    -0.9893286
29
431_C13H14N2_1-0-24-25 (-30,) energy =    -613.3045811
C           2.6685929    -1.4424410    -0.4464252
C           1.4386563    -1.1329413     0.1982688
N           1.3029957     0.0522271     0.9786716
C          -0.0470673     0.5461615     1.2051775
H          -0.5993678     0.5734254     0.2618445
H           0.0166759     1.5676699     1.5966083
H          -0.6259114    -0.0513017     1.9332549
C           2.0963959     0.0781293     2.2099746
H           2.1385644     1.1037582     2.5941044
H           3.1164890    -0.2548810     2.0161587
H           1.6629183    -0.5677339     2.9938560
C           0.3621748    -2.0245970     0.0602579
H          -0.5789928    -1.8037435     0.5513946
C           0.4796471    -3.2060823    -0.6695552
H          -0.3764036    -3.8705699    -0.7557777
C           1.6964959    -3.5367491    -1.2607304
H           1.8078369    -4.4599739    -1.8223749
C           2.7697338    -2.6587068    -1.1410155
H           3.7202104    -2.8882002    -1.6097287
C           6.1361120     1.0012567    -0.7800479
H           7.0596190     1.5626860    -0.8854670
C           6.1478893    -0.3931256    -0.7699753
H           7.0870249    -0.9368134    -0.8677550
N           5.0526169    -1.1457037    -0.6419956
C           3.8564659    -0.5357458    -0.5116233
C           3.7508431     0.8674797    -0.5128188
H           2.7780475     1.3295332    -0.4024029
C           4.9016410     1.6370534    -0.6527561
H           4.8326242     2.7219671    -0.6651548
29
431_C13H14N2_1-0-24-25 (-15,) energy =    -613.3034767
C           2.6839823    -1.4533156    -0.4150983
C           1.4366142    -1.1340584     0.1950312
N           1.2709695     0.0637933     0.9555004
C          -0.0851564     0.5727238     1.1038768
H          -0.5864766     0.5884759     0.1323932
H          -0.0322128     1.6002040     1.4813212
H          -0.7070732    -0.0065268     1.8105600
C           1.9893380     0.0712794     2.2326189
H           2.0077691     1.0909439     2.6344753
H           3.0198406    -0.2585434     2.0922600
H           1.5119246    -0.5871575     2.9793749
C           0.3677055    -2.0363809     0.0673593
H          -0.5820480    -1.8015528     0.5348487
C           0.4998412    -3.2408859    -0.6191749
H          -0.3512741    -3.9126317    -0.6974952
C           1.7292156    -3.5813492    -1.1777796
H           1.8571115    -4.5209542    -1.7080355
C           2.7934330    -2.6924246    -1.0723537
H           3.7481766    -2.9279189    -1.5272420
C           6.1512977     0.9967549    -0.8432014
H           7.0724289     1.5558919    -0.9773017
C           6.1213892    -0.3858228    -1.0283391
H           7.0264190    -0.9228632    -1.3111248
N           5.0277989    -1.1320737    -0.8767674
C           3.8665369    -0.5379611    -0.5255770
C           3.8090968     0.8523272    -0.3132764
H           2.8678662     1.3103004    -0.0398676
C           4.9585440     1.6196471    -0.4835022
H           4.9177901     2.6957602    -0.3339743
29
431_C13H14N2_1-0-24-25 (0,) energy =    -613.3016227
C           2.7149649    -1.4413994    -0.3899560
C           1.4634030    -1.1200797     0.2098593
N           1.2798879     0.0945779     0.9477951
C          -0.0652565     0.6546545     0.9661096
H          -0.4747461     0.6685405    -0.0474473
H          -0.0088491     1.6870864     1.3300557
H          -0.7707964     0.1132354     1.6222170
C           1.8632557     0.0477837     2.2912271
H           1.8652001     1.0552573     2.7238641
H           2.8955156    -0.3061506     2.2421614
H           1.2999450    -0.6190440     2.9675755
C           0.4037061    -2.0367371     0.1166900
H          -0.5472022    -1.7899384     0.5765975
C           0.5447210    -3.2635497    -0.5252731
H          -0.2983932    -3.9477916    -0.5770171
C           1.7781735    -3.6070050    -1.0739437
H           1.9173934    -4.5639486    -1.5694521
C           2.8315726    -2.7030498    -1.0060872
H           3.7835115    -2.9421484    -1.4635101
C           6.1731158     1.0147623    -0.9252209
H           7.0893030     1.5725144    -1.0942721
C           6.0641043    -0.3194721    -1.3198344
H           6.9008237    -0.8196616    -1.8070764
N           4.9725953    -1.0593120    -1.1388267
C           3.8874254    -0.5147301    -0.5444090
C           3.9158380     0.8245562    -0.1111117
H           3.0329220     1.2587514     0.3350504
C           5.0624378     1.5895482    -0.3146302
H           5.0816884     2.6277604     0.0075644
29
431_C13H14N2_1-0-24-25 (15,) energy =    -613.3034764
C           2.6845890    -1.3969701    -0.4255097
C           1.6364763    -1.2336320     0.5257364
N           1.4682761    -0.0072725     1.2382080
C           1.0068198     1.1117513     0.4123131
H           1.5948137     1.1769478    -0.5044088
H           1.1312216     2.0492850     0.9664477
H          -0.0575023     1.0105859     0.1364924
C           0.7495609    -0.0681044     2.5029431
H           0.9132020     0.8718876     3.0420011
H           1.1377949    -0.8872680     3.1142038
H          -0.3424102    -0.1992690     2.3928122
C           0.7386990    -2.2936651     0.7344120
H          -0.0648475    -2.1736804     1.4524985
C           0.8321710    -3.4874509     0.0232717
H           0.1189108    -4.2852701     0.2143542
C           1.8251495    -3.6361999    -0.9418066
H           1.9087240    -4.5550493    -1.5154907
C           2.7309376    -2.6018484    -1.1503422
H           3.5284632    -2.7122931    -1.8753784
C           6.0069463     1.1657890    -1.2020170
H           6.8681820     1.7733983    -1.4631276
C           5.5813292     0.1330550    -2.0379848
H           6.1106634    -0.0770129    -2.9670279
N           4.5320309    -0.6468537    -1.7798086
C           3.8237237    -0.4472940    -0.6470591
C           4.1811846     0.5771104     0.2497869
H           3.6060747     0.7163428     1.1554807
C           5.2849611     1.3784779    -0.0299781
H           5.5742901     2.1627835     0.6651422
29
431_C13H14N2_1-0-24-25 (30,) energy =    -613.3045812
C           2.7092920    -1.4195895    -0.4050410
C           1.6443707    -1.2336994     0.5199438
N           1.4757014     0.0088454     1.1973273
C           1.0982006     1.1371196     0.3426376
H           1.7062230     1.1531400    -0.5623186
H           1.2648351     2.0757202     0.8835625
H           0.0353271     1.0922834     0.0462433
C           0.7026840    -0.0064403     2.4301516
H           0.8628037     0.9427871     2.9537142
H           1.0454829    -0.8180886     3.0777303
H          -0.3860189    -0.1182408     2.2740671
C           0.7545005    -2.2968840     0.7450552
H          -0.0653054    -2.1671722     1.4428031
C           0.8788478    -3.5100484     0.0704488
H           0.1716679    -4.3105130     0.2728219
C           1.8900598    -3.6781923    -0.8723384
H           1.9923018    -4.6136080    -1.4152002
C           2.7860157    -2.6375767    -1.0995750
H           3.5922769    -2.7546924    -1.8151723
C           5.9578922     1.2073231    -1.2109443
H           6.8000262     1.8378706    -1.4800255
C           5.4157802     0.3126618    -2.1329745
H           5.8318234     0.2360093    -3.1370557
N           4.3812281    -0.4898077    -1.8713881
C           3.8151999    -0.4422870    -0.6479416
C           4.2981847     0.4303048     0.3447656
H           3.8205799     0.4497336     1.3161338
C           5.3807946     1.2558385     0.0576380
H           5.7702357     1.9272889     0.8188395
29
431_C13H14N2_1-0-24-25 (45,) energy =    -613.3046054
C           2.7257340    -1.4560692    -0.3773220
C           1.6383082    -1.2459925     0.5108865
N           1.4699536     0.0160606     1.1483007
C           1.1289028     1.1284425     0.2583773
H           1.7500540     1.1085455    -0.6375562
H           1.3064571     2.0771670     0.7776191
H           0.0698454     1.0975639    -0.0538791
C           0.6705379     0.0416229     2.3634005
H           0.8298588     1.0021753     2.8661971
H           0.9891418    -0.7569788     3.0391435
H          -0.4158147    -0.0625471     2.1857642
C           0.7486588    -2.3068354     0.7456596
H          -0.0899248    -2.1637487     1.4183986
C           0.9016281    -3.5379074     0.1084362
H           0.1955154    -4.3383357     0.3146987
C           1.9369783    -3.7273114    -0.8039652
H           2.0565801    -4.6771355    -1.3173860
C           2.8305244    -2.6852646    -1.0420257
H           3.6507366    -2.8145220    -1.7407987
C           5.8906009     1.2509613    -1.1977793
H           6.7093311     1.9100968    -1.4707620
C           5.2285677     0.5030192    -2.1697275
H           5.5253163     0.5711336    -3.2157259
N           4.2136679    -0.3282646    -1.9077129
C           3.7981722    -0.4484902    -0.6321200
C           4.4129931     0.2601513     0.4156281
H           4.0513753     0.1371855     1.4293205
C           5.4692747     1.1172256     0.1260933
H           5.9617717     1.6681468     0.9234247
29
431_C13H14N2_1-0-24-25 (60,) energy =    -613.3034920
C           2.7393535    -1.4844998    -0.3380892
C           1.6236785    -1.2492678     0.5033719
N           1.4519788     0.0306098     1.1013281
C           1.1307562     1.1197716     0.1759689
H           1.7630698     1.0705245    -0.7111224
H           1.3072145     2.0810241     0.6720255
H           0.0758373     1.0873229    -0.1504175
C           0.6343860     0.0915749     2.3026031
H           0.7920558     1.0633461     2.7839895
H           0.9374303    -0.6920461     3.0027542
H          -0.4498913    -0.0106141     2.1108824
C           0.7296472    -2.3053164     0.7422377
H          -0.1303840    -2.1458016     1.3838649
C           0.9106555    -3.5540577     0.1471475
H           0.2014073    -4.3519467     0.3525646
C           1.9774450    -3.7674520    -0.7231109
H           2.1164065    -4.7319418    -1.2032173
C           2.8746614    -2.7279181    -0.9651063
H           3.7167163    -2.8762425    -1.6346970
C           5.8354440     1.2929866    -1.1623033
H           6.6324000     1.9780551    -1.4360801
C           5.0389003     0.7054728    -2.1431144
H           5.2074941     0.9277020    -3.1960811
N           4.0418780    -0.1502324    -1.8821791
C           3.7881327    -0.4520627    -0.5957297
C           4.5457032     0.0827073     0.4597567
H           4.3107896    -0.1933297     1.4816750
C           5.5793841     0.9672259     0.1708164
H           6.1817144     1.3896321     0.9710708
29
431_C13H14N2_1-0-24-25 (75,) energy =    -613.3018158
C           2.7296857    -1.4946009    -0.3160130
C           1.5900790    -1.2357141     0.4822919
N           1.4056599     0.0632703     1.0329671
C           1.0662441     1.1113455     0.0667288
H           1.6891555     1.0287166    -0.8245212
H           1.2387318     2.0933565     0.5222271
H           0.0078696     1.0571021    -0.2462168
C           0.5879083     0.1562137     2.2319890
H           0.7339189     1.1462130     2.6787564
H           0.9009264    -0.5986941     2.9589687
H          -0.4954284     0.0347710     2.0454455
C           0.6941733    -2.2875165     0.7331846
H          -0.1835806    -2.1107609     1.3459669
C           0.9007015    -3.5558505     0.1901169
H           0.1896825    -4.3504538     0.4020977
C           1.9974063    -3.7954695    -0.6348719
H           2.1576413    -4.7770552    -1.0717967
C           2.8980644    -2.7599267    -0.8861439
H           3.7656792    -2.9338860    -1.5167814
C           5.7951423     1.3212028    -1.1342982
H           6.5747895     2.0263330    -1.4070226
C           4.8417948     0.9243474    -2.0702744
H           4.8683882     1.3188101    -3.0851925
N           3.8551922     0.0559713    -1.8095281
C           3.7779106    -0.4551945    -0.5680267
C           4.6959616    -0.1185868     0.4382124
H           4.5978731    -0.5610498     1.4241755
C           5.7159777     0.7835006     0.1508952
H           6.4404366     1.0574311     0.9135671
29
431_C13H14N2_1-0-24-25 (90,) energy =    -613.3007657
C           2.7257459    -1.4783427    -0.2997000
C           1.5628265    -1.2029952     0.4574519
N           1.3548206     0.1121696     0.9635949
C           0.9403304     1.1004779    -0.0370046
H           1.5514500     1.0094922    -0.9357982
H           1.0715993     2.1076574     0.3758238
H          -0.1213051     0.9802895    -0.3205686
C           0.5648321     0.2209997     2.1806231
H           0.6977351     1.2272060     2.5943282
H           0.9147907    -0.5042786     2.9208720
H          -0.5199413     0.0690316     2.0268791
C           0.6678304    -2.2530570     0.7173853
H          -0.2268617    -2.0615446     1.3008742
C           0.9002375    -3.5390290     0.2289005
H           0.1885358    -4.3315135     0.4464542
C           2.0286469    -3.8002569    -0.5446672
H           2.2142144    -4.7969976    -0.9348625
C           2.9311357    -2.7670611    -0.8016319
H           3.8266984    -2.9626658    -1.3857993
C           5.7902722     1.3583638    -1.0694384
H           6.5578935     2.0827361    -1.3252217
C           4.6924432     1.1664483    -1.9068277
H           4.5934644     1.7419715    -2.8261690
N           3.7101397     0.2898969    -1.6605017
C           3.7864506    -0.4444300    -0.5368126
C           4.8537603    -0.3205356     0.3643661
H           4.8763497    -0.9363414     1.2579264
C           5.8678433     0.5948650     0.0949637
H           6.7046299     0.7078115     0.7794725
29
431_C13H14N2_1-0-24-25 (105,) energy =    -613.3005233
C           2.7433440    -1.4575067    -0.2824865
C           1.5490645    -1.1684679     0.4203471
N           1.3057654     0.1579229     0.8875439
C           0.7972322     1.0803196    -0.1330639
H           1.4056560     1.0070692    -1.0349994
H           0.8606121     2.1060201     0.2493957
H          -0.2583140     0.8738390    -0.3899626
C           0.5515376     0.2690570     2.1282809
H           0.6610974     1.2898504     2.5123848
H           0.9523108    -0.4239490     2.8736864
H          -0.5318386     0.0751784     2.0168408
C           0.6540590    -2.2183398     0.6794799
H          -0.2631573    -2.0134116     1.2224069
C           0.9156618    -3.5201550     0.2519373
H           0.2012837    -4.3105359     0.4682837
C           2.0822481    -3.7997788    -0.4553485
H           2.2959984    -4.8092288    -0.7953542
C           2.9860566    -2.7678422    -0.7107520
H           3.9099094    -2.9786978    -1.2435467
C           5.8205655     1.3772523    -1.0153654
H           6.5826745     2.1137019    -1.2522795
C           4.6126624     1.3601141    -1.7116673
H           4.4228440     2.0850609    -2.5020291
N           3.6295797     0.4825336    -1.4786161
C           3.8137885    -0.4338731    -0.5124905
C           4.9975117    -0.4938777     0.2385339
H           5.1067913    -1.2501065     1.0095442
C           6.0125736     0.4251380    -0.0154114
H           6.9359776     0.3982117     0.5573900
29
431_C13H14N2_1-0-24-25 (120,) energy =    -613.3006158
C           2.7753895    -1.4458159    -0.2494507
C           1.5463736    -1.1393273     0.3852420
N           1.2668897     0.1994035     0.8039157
C           0.6561335     1.0375898    -0.2323475
H           1.2481711     0.9754586    -1.1451562
H           0.6543711     2.0795484     0.1094133
H          -0.3887803     0.7442561    -0.4461175
C           0.5631717     0.3248661     2.0740532
H           0.6429913     1.3637138     2.4151529
H           1.0289621    -0.3202455     2.8246644
H          -0.5143550     0.0793265     2.0227931
C           0.6442118    -2.1843267     0.6373286
H          -0.2974702    -1.9611797     1.1293773
C           0.9272612    -3.5002555     0.2727865
H           0.2044244    -4.2850724     0.4810024
C           2.1304987    -3.7998467    -0.3618462
H           2.3637954    -4.8196137    -0.6551532
C           3.0417260    -2.7743697    -0.6105744
H           3.9876020    -3.0012012    -1.0959104
C           5.8542086     1.3855565    -0.9804409
H           6.6102152     2.1316002    -1.2064236
C           4.5661592     1.5019963    -1.5022876
H           4.3072951     2.3422661    -2.1452341
N           3.5850521     0.6236953    -1.2705917
C           3.8493858    -0.4330622    -0.4829129
C           5.1183216    -0.6321439     0.0860164
H           5.2925406    -1.4923309     0.7247219
C           6.1314827     0.2890439    -0.1657479
H           7.1180275     0.1548046     0.2703813
29
431_C13H14N2_1-0-24-25 (135,) energy =    -613.3002817
C           2.8069342    -1.4382254    -0.1750123
C           1.5416509    -1.1196327     0.3830657
N           1.2272984     0.2233983     0.7647405
C           0.5863481     1.0115847    -0.2900412
H           1.1779218     0.9437515    -1.2021234
H           0.5554445     2.0626576     0.0211712
H          -0.4504258     0.6815411    -0.4906573
C           0.5266086     0.3611314     2.0356315
H           0.5784880     1.4104790     2.3493863
H           1.0155677    -0.2503309     2.7995297
H          -0.5438826     0.0835482     1.9993715
C           0.6294855    -2.1610359     0.6146410
H          -0.3358477    -1.9234493     1.0512977
C           0.9270424    -3.4856375     0.2995365
H           0.1934963    -4.2654536     0.4879555
C           2.1610571    -3.7981856    -0.2665784
H           2.4076110    -4.8230919    -0.5296795
C           3.0817567    -2.7783983    -0.4949154
H           4.0413676    -3.0189362    -0.9442811
C           5.8847057     1.3850366    -0.9472054
H           6.6360742     2.1344469    -1.1773524
C           4.5462416     1.5976050    -1.2757246
H           4.2422163     2.5183088    -1.7722714
N           3.5678616     0.7220493    -1.0270422
C           3.8821818    -0.4328570    -0.4140040
C           5.2074672    -0.7326803    -0.0486522
H           5.4301563    -1.6639934     0.4619679
C           6.2169808     0.1864708    -0.3176032
H           7.2442328    -0.0274850    -0.0340069
29
431_C13H14N2_1-0-24-25 (150,) energy =    -613.2994665
C           2.4406316    -1.1837083    -0.6953795
C           1.4062835    -1.1763097     0.2907406
N           1.5383656    -0.5113873     1.5083355
C           0.3628283    -0.1779161     2.2855869
H          -0.4387411     0.1771928     1.6322999
H           0.6178088     0.6352268     2.9745917
H          -0.0227163    -1.0193291     2.8900432
C           2.7574983    -0.5972249     2.2958382
H           3.1567814     0.3980917     2.5275199
H           3.5243949    -1.1539132     1.7575875
H           2.5622284    -1.1274568     3.2417922
C           0.2168894    -1.8836997     0.0093898
H          -0.5750452    -1.9017226     0.7496371
C           0.0483453    -2.6023834    -1.1686466
H          -0.8826408    -3.1384133    -1.3362122
C           1.0732610    -2.6527448    -2.1118208
H           0.9550397    -3.2093668    -3.0366809
C           2.2427725    -1.9411364    -1.8630117
H           3.0117172    -1.9155678    -2.6295267
C           5.8005333     1.4217207    -0.7647083
H           6.6143101     2.1402622    -0.7867914
C           4.5643741     1.7607021    -0.2137187
H           4.4036082     2.7563720     0.1991654
N           3.5175719     0.9338302    -0.1530358
C           3.6512754    -0.3116255    -0.6518793
C           4.8684348    -0.7433229    -1.2154955
H           4.9693147    -1.7600941    -1.5809850
C           5.9487566     0.1313384    -1.2710414
H           6.8941896    -0.1936560    -1.6979362
29
431_C13H14N2_1-0-24-25 (165,) energy =    -613.2971378
C           2.4975900    -1.2452434    -0.6409427
C           1.4199747    -1.1718131     0.3006825
N           1.5245755    -0.4982048     1.5143789
C           0.3319609    -0.1052560     2.2360406
H          -0.4257166     0.2741708     1.5452290
H           0.5922676     0.7060495     2.9251553
H          -0.1139109    -0.9210964     2.8339273
C           2.7027851    -0.6283378     2.3555778
H           3.1373458     0.3498572     2.5929337
H           3.4653059    -1.2261356     1.8562664
H           2.4393606    -1.1386284     3.2960531
C           0.2149844    -1.8427616    -0.0088676
H          -0.6044682    -1.8049502     0.6996854
C           0.0651191    -2.5990734    -1.1635249
H          -0.8775911    -3.1071653    -1.3511839
C           1.1274444    -2.7219484    -2.0580080
H           1.0291380    -3.3077832    -2.9670353
C           2.3075160    -2.0387665    -1.7894244
H           3.0916406    -2.0668028    -2.5381246
C           5.7930318     1.4538439    -0.7887650
H           6.5832207     2.1974717    -0.8271448
C           4.6247699     1.6867807    -0.0652635
H           4.4911762     2.6256217     0.4720247
N           3.6120278     0.8215711     0.0243085
C           3.7034431    -0.3619759    -0.6159114
C           4.8578652    -0.6820392    -1.3630259
H           4.9532630    -1.6489267    -1.8443582
C           5.9048164     0.2281541    -1.4442374
H           6.7987956    -0.0203436    -2.0105770
29
431_C13H14N2_1-0-24-25 (180,) energy =    -613.2941025
C           2.5124869    -1.2715160    -0.6291154
C           1.4272956    -1.1692282     0.3072783
N           1.5079286    -0.4257638     1.4884047
C           0.2903824     0.0071617     2.1443674
H          -0.4253876     0.3851430     1.4095265
H           0.5387989     0.8280655     2.8269889
H          -0.2016904    -0.7826859     2.7423196
C           2.5909101    -0.6822901     2.4276447
H           2.9808896     0.2559538     2.8372556
H           3.4112835    -1.2029084     1.9374075
H           2.2352662    -1.3133159     3.2610120
C           0.2285063    -1.8613356     0.0241022
H          -0.5941140    -1.7881032     0.7259634
C           0.0844983    -2.6792068    -1.0875850
H          -0.8538462    -3.2028282    -1.2524371
C           1.1567716    -2.8457344    -1.9618346
H           1.0765180    -3.4912755    -2.8314677
C           2.3297391    -2.1411109    -1.7245559
H           3.1191760    -2.2406998    -2.4588748
C           5.8088631     1.4543270    -0.7574927
H           6.6022700     2.1954144    -0.7661735
C           4.7584182     1.5368142     0.1522477
H           4.7186229     2.3535125     0.8731233
N           3.7545112     0.6600439     0.2197260
C           3.7188380    -0.3810569    -0.6362092
C           4.7525257    -0.5377585    -1.5891816
H           4.7680098    -1.3755176    -2.2744438
C           5.7968393     0.3761924    -1.6418242
H           6.5930561     0.2454645    -2.3702505
