22
148_C7H13NO_16-0-7-3 (-165,) energy =    -404.5734615
C           2.2442188    -0.7456350    -0.5554154
H           1.5461394    -1.0469335     0.2408223
H           2.0183252     0.2904009    -0.8240226
C           3.8547253    -0.3213432     1.3741791
H           4.8920494    -0.4089283     1.7148243
H           3.2221544    -0.8679857     2.0843517
H           3.5759382     0.7381004     1.4299760
C           3.6898012    -0.8689729    -0.0467926
H           4.3585294    -0.3483987    -0.7428229
H           3.9895379    -1.9257616    -0.0601303
C           1.6931984    -3.4030957    -3.1597870
H           1.0269895    -4.2524970    -3.3333171
H           2.6996333    -3.6986387    -3.4750232
C           1.7215440    -2.9836879    -1.6736425
H           2.5067142    -3.4996081    -1.1093229
H           0.7633146    -3.1902294    -1.1695107
N           1.9714662    -1.5497851    -1.7344805
C           1.6840127    -0.9884563    -2.9562936
C           1.2660674    -2.1229763    -3.8950455
H           1.7222005    -1.9938224    -4.8797264
H           0.1780991    -2.0650063    -4.0298849
O           1.7317628     0.2035061    -3.2193757
22
148_C7H13NO_16-0-7-3 (-150,) energy =    -404.5717169
C           2.2674039    -0.6309032    -0.6469405
H           1.5560759    -0.8850697     0.1542393
H           2.0542991     0.3921708    -0.9681106
C           3.8047653    -0.4826588     1.3945070
H           4.8394262    -0.5580118     1.7463969
H           3.2032059    -1.2019469     1.9635958
H           3.4430450     0.5222267     1.6455975
C           3.7085778    -0.7556924    -0.1098552
H           4.3673686    -0.0822214    -0.6706527
H           4.0740677    -1.7723128    -0.3068858
C           1.6933327    -3.4104573    -3.1142717
H           1.0240090    -4.2657243    -3.2405755
H           2.6968414    -3.7237367    -3.4216292
C           1.7336226    -2.9175841    -1.6512712
H           2.5199862    -3.4086198    -1.0664702
H           0.7778366    -3.0932960    -1.1308949
N           1.9900216    -1.4901683    -1.7852351
C           1.6922693    -0.9887752    -3.0306161
C           1.2638385    -2.1670979    -3.9087873
H           1.7120672    -2.0883379    -4.9023712
H           0.1749228    -2.1124281    -4.0373179
O           1.7393144     0.1886173    -3.3524311
22
148_C7H13NO_16-0-7-3 (-135,) energy =    -404.5698315
C           2.2865475    -0.5187905    -0.7077332
H           1.5566926    -0.6984943     0.0967047
H           2.1060700     0.4858151    -1.0982649
C           3.7707397    -0.6575479     1.3886790
H           4.8001920    -0.7379828     1.7549325
H           3.2017566    -1.5017813     1.7973456
H           3.3423593     0.2617097     1.8070123
C           3.7234328    -0.6519773    -0.1427681
H           4.3496763     0.1557005    -0.5394191
H           4.1656882    -1.5842878    -0.5164467
C           1.6963134    -3.4206639    -3.0251670
H           1.0287939    -4.2833080    -3.1004570
H           2.6974310    -3.7461474    -3.3276033
C           1.7509454    -2.8540480    -1.5893780
H           2.5491737    -3.3083920    -0.9908240
H           0.8036537    -3.0108382    -1.0478567
N           1.9939671    -1.4335167    -1.7975675
C           1.6840755    -0.9972060    -3.0641167
C           1.2531868    -2.2206989    -3.8770506
H           1.6917289    -2.1900398    -4.8775746
H           0.1628829    -2.1775934    -3.9977079
O           1.7236882     0.1621602    -3.4467319
22
148_C7H13NO_16-0-7-3 (-120,) energy =    -404.5689380
C           2.3000372    -0.4141887    -0.7820101
H           1.5439458    -0.5076086     0.0127193
H           2.1668811     0.5649798    -1.2484900
C           3.7179161    -0.8407863     1.3327768
H           4.7377063    -0.9279671     1.7240599
H           3.1899939    -1.7747047     1.5632177
H           3.2188043    -0.0359596     1.8862025
C           3.7210340    -0.5586386    -0.1736496
H           4.2956709     0.3539242    -0.3720160
H           4.2491806    -1.3631248    -0.7002496
C           1.7010027    -3.4277200    -2.9522431
H           1.0341110    -4.2936134    -2.9818541
H           2.7005899    -3.7665118    -3.2449777
C           1.7638938    -2.7921289    -1.5457909
H           2.5679675    -3.2147529    -0.9320554
H           0.8209532    -2.9249542    -0.9904128
N           2.0023984    -1.3824780    -1.8231725
C           1.6830356    -1.0088147    -3.1073493
C           1.2509732    -2.2709051    -3.8581369
H           1.6841839    -2.2872783    -4.8613362
H           0.1599781    -2.2356293    -3.9749843
O           1.7168637     0.1305025    -3.5464961
22
148_C7H13NO_16-0-7-3 (-105,) energy =    -404.5694252
C           2.3312258    -0.3230694    -0.8317478
H           1.5471493    -0.3276241    -0.0587887
H           2.2543496     0.6237286    -1.3724173
C           3.6896981    -1.0110605     1.2606063
H           4.6983465    -1.0865002     1.6822493
H           3.2349030    -2.0083552     1.3071368
H           3.1051176    -0.3531139     1.9149602
C           3.7256898    -0.4666011    -0.1723850
H           4.2101024     0.5177759    -0.1599343
H           4.3528154    -1.1017856    -0.8096678
C           1.7081436    -3.4366389    -2.8557749
H           1.0351298    -4.2981492    -2.8402561
H           2.7028229    -3.7957072    -3.1408708
C           1.7872344    -2.7385007    -1.4802135
H           2.5935516    -3.1397101    -0.8561774
H           0.8481608    -2.8397742    -0.9116891
N           2.0336370    -1.3438279    -1.8229414
C           1.7013679    -1.0270523    -3.1198451
C           1.2583090    -2.3193784    -3.8095318
H           1.6844409    -2.3830998    -4.8138801
H           0.1667659    -2.2829218    -3.9207546
O           1.7338199     0.0909439    -3.6109511
22
148_C7H13NO_16-0-7-3 (-90,) energy =    -404.5704932
C           2.2463036    -0.2878784    -0.7672332
H           1.4897988    -0.3475137     0.0286304
H           2.0775072     0.6393084    -1.3223568
C           3.8324480    -1.0909154     1.1238204
H           4.8444326    -0.9842338     1.5306946
H           3.6597298    -2.1603960     0.9549537
H           3.1277860    -0.7598341     1.8966271
C           3.6650144    -0.2674840    -0.1588827
H           3.9139369     0.7775882     0.0690799
H           4.3782805    -0.5910672    -0.9259417
C           1.6351500    -3.4708155    -2.6979576
H           0.9008659    -4.2804757    -2.7242822
H           2.6260515    -3.9142284    -2.8435440
C           1.6057277    -2.7059925    -1.3569601
H           2.2907623    -3.1361106    -0.6193932
H           0.5985679    -2.7016193    -0.9088758
N           2.0081831    -1.3540457    -1.7301566
C           1.8478172    -1.0860408    -3.0705139
C           1.3881181    -2.3782870    -3.7489832
H           1.9220250    -2.5280684    -4.6907371
H           0.3233226    -2.2684401    -3.9924571
O           2.0164526     0.0006705    -3.6024272
22
148_C7H13NO_16-0-7-3 (-75,) energy =    -404.5721695
C           2.1054234    -0.2987446    -0.6658161
H           1.4397483    -0.4816413     0.1866505
H           1.7804220     0.6247937    -1.1575242
C           4.0277683    -1.1951593     0.7980147
H           5.0606454    -1.0137977     1.1158623
H           3.9934919    -2.1983309     0.3559362
H           3.3995982    -1.2032659     1.6977702
C           3.5586918    -0.1275935    -0.1947890
H           3.6414089     0.8616609     0.2762741
H           4.2041823    -0.1042250    -1.0796363
C           1.5277987    -3.4914315    -2.5902905
H           0.7350589    -4.2283922    -2.7451808
H           2.4771975    -4.0326997    -2.5155437
C           1.3066937    -2.6623143    -1.3066159
H           1.7745015    -3.1180592    -0.4273735
H           0.2349394    -2.5351899    -1.0833415
N           1.9251426    -1.3803452    -1.6282268
C           2.0736310    -1.1647304    -2.9759301
C           1.6132833    -2.4321747    -3.7006300
H           2.2996878    -2.6831344    -4.5131908
H           0.6344271    -2.2256059    -4.1528973
O           2.4741198    -0.1268605    -3.4825817
22
148_C7H13NO_16-0-7-3 (-60,) energy =    -404.5728031
C           2.0772140    -0.2294205    -0.6807994
H           1.3751870    -0.3821478     0.1487397
H           1.7823526     0.6830508    -1.2105653
C           4.0414217    -1.2730076     0.6207094
H           5.0549049    -1.0874935     0.9933909
H           4.0842695    -2.1597200    -0.0218892
H           3.4092621    -1.5123288     1.4857810
C           3.5078496    -0.0606773    -0.1469644
H           3.5214004     0.8273658     0.4996517
H           4.1619297     0.1608945    -0.9983880
C           1.5149012    -3.4832403    -2.5027542
H           0.7133197    -4.2100274    -2.6601720
H           2.4489851    -4.0398901    -2.3698114
C           1.2619860    -2.6002082    -1.2617575
H           1.6839920    -3.0309409    -0.3475849
H           0.1855019    -2.4403610    -1.0876861
N           1.9227411    -1.3458250    -1.6067556
C           2.1245499    -1.1848075    -2.9555528
C           1.6659073    -2.4703061    -3.6488289
H           2.3776775    -2.7665119    -4.4234605
H           0.7099309    -2.2622003    -4.1469769
O           2.5633034    -0.1744989    -3.4854689
22
148_C7H13NO_16-0-7-3 (-45,) energy =    -404.5716037
C           2.0913077    -0.1868275    -0.6981298
H           1.3310104    -0.2822152     0.0881552
H           1.8669530     0.7155997    -1.2759305
C           4.0755206    -1.3546733     0.4853215
H           5.0696745    -1.1831927     0.9125501
H           4.1788202    -2.1021480    -0.3081726
H           3.4471334    -1.7843353     1.2765713
C           3.4895051    -0.0516069    -0.0645034
H           3.4301142     0.7069928     0.7270797
H           4.1692050     0.3453344    -0.8285633
C           1.4972927    -3.4890184    -2.4174615
H           0.6822125    -4.2040236    -2.5586148
H           2.4182736    -4.0603643    -2.2580127
C           1.2518943    -2.5617949    -1.2075700
H           1.6590590    -2.9713028    -0.2772718
H           0.1776019    -2.3751291    -1.0469273
N           1.9383297    -1.3317119    -1.5870310
C           2.1547788    -1.2183413    -2.9390619
C           1.6791280    -2.5173674    -3.5943621
H           2.3931127    -2.8522705    -4.3509875
H           0.7326306    -2.3079357    -4.1096983
O           2.6155444    -0.2338410    -3.4975116
22
148_C7H13NO_16-0-7-3 (-30,) energy =    -404.5691658
C           2.0817201    -0.1757640    -0.7496296
H           1.2606730    -0.1998732    -0.0211046
H           1.9443172     0.7092248    -1.3776694
C           4.1053250    -1.4102674     0.3358189
H           5.0723530    -1.2400782     0.8218484
H           4.2835281    -2.0018226    -0.5674418
H           3.4968187    -2.0137029     1.0216209
C           3.4384363    -0.0751008    -0.0071143
H           3.2891950     0.5234774     0.9002980
H           4.1305291     0.4926315    -0.6414670
C           1.4567247    -3.5206614    -2.3709110
H           0.6291023    -4.2235127    -2.4994948
H           2.3639613    -4.1049316    -2.1825524
C           1.2157559    -2.5515361    -1.1931460
H           1.6095329    -2.9380041    -0.2475320
H           0.1432989    -2.3438115    -1.0463321
N           1.9218581    -1.3435241    -1.6047658
C           2.1613891    -1.2795474    -2.9564325
C           1.6707475    -2.5905854    -3.5755039
H           2.3879609    -2.9619277    -4.3117504
H           0.7346604    -2.3812509    -4.1095409
O           2.6492687    -0.3236741    -3.5406006
22
148_C7H13NO_16-0-7-3 (-15,) energy =    -404.5669238
C           1.6395739    -1.6058287    -0.0478329
H           1.3962809    -2.5701080     0.4151182
H           0.7841427    -0.9415461     0.1030324
C           4.1910263    -1.0435415    -0.1860320
H           5.0090820    -0.5699905     0.3682489
H           4.0763417    -0.5117826    -1.1352836
H           4.5002644    -2.0717367    -0.4105088
C           2.8990929    -0.9934292     0.6352877
H           3.0514722    -1.4938049     1.5995906
H           2.6881453     0.0573481     0.8669034
C           2.2226806    -2.8204183    -3.5672579
H           1.9553114    -3.6792182    -4.1888834
H           3.2608303    -2.5547316    -3.7939002
C           2.0892306    -3.1314430    -2.0606323
H           3.0176274    -3.5230926    -1.6313075
H           1.2956376    -3.8704196    -1.8631349
N           1.7440471    -1.8386751    -1.4809079
C           1.2487531    -0.9394869    -2.3938930
C           1.3111060    -1.6003099    -3.7732024
H           1.6675281    -0.8914834    -4.5247342
H           0.2898596    -1.8881112    -4.0551869
O           0.8130472     0.1699438    -2.1249329
22
148_C7H13NO_16-0-7-3 (0,) energy =    -404.5663899
C           1.6326557    -1.5912880    -0.0077237
H           1.2886388    -2.5196184     0.4633799
H           0.8395253    -0.8476687     0.1089305
C           4.1477836    -0.9035716    -0.2170345
H           4.9988490    -0.5254558     0.3607680
H           3.9422893    -0.1884773    -1.0198363
H           4.4566337    -1.8486690    -0.6781473
C           2.9298064    -1.0787598     0.6954078
H           3.1896834    -1.7653632     1.5109096
H           2.7077962    -0.1161404     1.1703018
C           2.2282858    -2.8501580    -3.5082858
H           1.9378598    -3.7013883    -4.1299590
H           3.2804754    -2.6284737    -3.7165293
C           2.0530749    -3.1451432    -2.0024747
H           2.9588249    -3.5653550    -1.5507929
H           1.2313189    -3.8554748    -1.8159006
N           1.7413722    -1.8380030    -1.4372508
C           1.3108136    -0.9222623    -2.3657691
C           1.3718052    -1.5951766    -3.7393819
H           1.7715611    -0.9068105    -4.4880707
H           0.3451654    -1.8428797    -4.0393106
O           0.9255854     0.2098614    -2.1143882
22
148_C7H13NO_16-0-7-3 (15,) energy =    -404.5678605
C           1.6311644    -1.5455397     0.0260495
H           1.1619146    -2.4098442     0.5122926
H           0.9374014    -0.7036873     0.1044768
C           4.1202993    -0.8064973    -0.1927065
H           5.0019609    -0.5186996     0.3911760
H           3.8535508     0.0362913    -0.8394585
H           4.4082160    -1.6441540    -0.8369315
C           2.9657935    -1.1797780     0.7422608
H           3.2852448    -2.0215904     1.3708224
H           2.7670777    -0.3499385     1.4305210
C           2.2362462    -2.8689109    -3.4466706
H           1.9437687    -3.7297844    -4.0538958
H           3.2911057    -2.6583593    -3.6530672
C           2.0496565    -3.1339348    -1.9365380
H           2.9516478    -3.5466797    -1.4699158
H           1.2255799    -3.8391139    -1.7411944
N           1.7367121    -1.8162404    -1.3979305
C           1.3212215    -0.9138270    -2.3470298
C           1.3896816    -1.6130875    -3.7070270
H           1.8000091    -0.9405067    -4.4642722
H           0.3639932    -1.8595942    -4.0111023
O           0.9429891     0.2263579    -2.1235809
22
148_C7H13NO_16-0-7-3 (30,) energy =    -404.5704967
C           1.6465134    -1.4851050     0.0390367
H           1.0690534    -2.2727315     0.5416489
H           1.0628877    -0.5607986     0.0891315
C           4.1113017    -0.7097211    -0.1376333
H           5.0159782    -0.5145404     0.4490682
H           3.8037883     0.2299208    -0.6105069
H           4.3761120    -1.4098570    -0.9366425
C           3.0036117    -1.2740337     0.7568114
H           3.3487621    -2.2269221     1.1820068
H           2.8300458    -0.6098701     1.6122692
C           2.2295556    -2.8969469    -3.4002495
H           1.9304890    -3.7717992    -3.9838123
H           3.2847413    -2.6975822    -3.6160778
C           2.0468816    -3.1217793    -1.8830831
H           2.9493881    -3.5244190    -1.4084534
H           1.2215835    -3.8192810    -1.6665488
N           1.7396629    -1.7897770    -1.3779672
C           1.3239711    -0.9098281    -2.3489123
C           1.3882003    -1.6442101    -3.6904158
H           1.8002674    -0.9923412    -4.4646410
H           0.3610289    -1.8936651    -3.9869180
O           0.9494780     0.2370617    -2.1564605
22
148_C7H13NO_16-0-7-3 (45,) energy =    -404.5728719
C           1.6796623    -1.4414823     0.0215408
H           1.0240554    -2.1598459     0.5347866
H           1.1920694    -0.4620676     0.0523297
C           4.1147547    -0.6078036    -0.0477890
H           5.0373455    -0.5204931     0.5367587
H           3.7784220     0.4030625    -0.3060384
H           4.3574128    -1.1208220    -0.9841670
C           3.0417728    -1.3657994     0.7386694
H           3.4040736    -2.3806042     0.9566318
H           2.8747383    -0.8904186     1.7137845
C           2.2114780    -2.9512471    -3.3839172
H           1.8933205    -3.8355459    -3.9426461
H           3.2686883    -2.7764363    -3.6109309
C           2.0342030    -3.1335693    -1.8604755
H           2.9306391    -3.5440211    -1.3815834
H           1.1950664    -3.8071411    -1.6217768
N           1.7591947    -1.7826559    -1.3882874
C           1.3462019    -0.9224537    -2.3787851
C           1.3901278    -1.6919088    -3.7012925
H           1.8085224    -1.0670167    -4.4941812
H           0.3571249    -1.9310927    -3.9857393
O           0.9877909     0.2336717    -2.2141476
22
148_C7H13NO_16-0-7-3 (60,) energy =    -404.5739273
C           1.7135283    -1.4003090    -0.0102114
H           1.0299991    -2.0809919     0.5188825
H           1.2735609    -0.3983941     0.0104498
C           4.0848421    -0.4209558     0.0578893
H           5.0359570    -0.4289651     0.6018612
H           3.6987809     0.6048234     0.0630213
H           4.2905219    -0.6881340    -0.9842018
C           3.0822022    -1.3906277     0.6889684
H           3.5013624    -2.4066212     0.6983368
H           2.9126298    -1.1243848     1.7409047
C           2.1231121    -3.0281473    -3.3783862
H           1.7535274    -3.9092058    -3.9099397
H           3.1858267    -2.9151014    -3.6185172
C           1.9517660    -3.1594960    -1.8493739
H           2.8252600    -3.6142547    -1.3688692
H           1.0738210    -3.7716195    -1.5853131
N           1.7676133    -1.7814004    -1.4122903
C           1.3809748    -0.9295412    -2.4213032
C           1.3657081    -1.7362402    -3.7220553
H           1.8050083    -1.1571600    -4.5381079
H           0.3174582    -1.9280075    -3.9860629
O           1.0816851     0.2466459    -2.2839433
22
148_C7H13NO_16-0-7-3 (75,) energy =    -404.5733741
C           1.7706930    -1.3953467    -0.0537235
H           1.0815686    -2.0567738     0.4918489
H           1.3531078    -0.3840722    -0.0347098
C           4.0522597    -0.2522973     0.1897986
H           5.0368615    -0.3148858     0.6669076
H           3.6028922     0.7086427     0.4648505
H           4.2029957    -0.2445264    -0.8953802
C           3.1549495    -1.4178822     0.6160006
H           3.6489472    -2.3764965     0.4071903
H           3.0039684    -1.3848769     1.7036097
C           2.0284556    -3.1243485    -3.3856522
H           1.5847582    -3.9837998    -3.8954343
H           3.0957656    -3.1050341    -3.6309710
C           1.8535094    -3.2057845    -1.8538279
H           2.6862657    -3.7234514    -1.3645511
H           0.9269502    -3.7333007    -1.5735706
N           1.7904521    -1.8073662    -1.4489004
C           1.4672412    -0.9500728    -2.4752256
C           1.3788402    -1.7821289    -3.7570587
H           1.8609333    -1.2604111    -4.5875515
H           0.3171387    -1.8921508    -4.0138899
O           1.2648297     0.2492666    -2.3624660
22
148_C7H13NO_16-0-7-3 (90,) energy =    -404.5717328
C           1.8331755    -1.4133069    -0.0916469
H           1.1487986    -2.0550366     0.4812330
H           1.4304129    -0.3962239    -0.0769420
C           4.0118425    -0.1356648     0.3523887
H           5.0283610    -0.2084393     0.7556225
H           3.5031239     0.6874329     0.8673514
H           4.0834899     0.1365721    -0.7066060
C           3.2426528    -1.4483154     0.5361952
H           3.8086161    -2.2880725     0.1127976
H           3.1424975    -1.6584035     1.6096107
C           1.9656421    -3.2212776    -3.3881623
H           1.4650253    -4.0589726    -3.8811709
H           3.0315385    -3.2784008    -3.6337232
C           1.7875127    -3.2611704    -1.8545750
H           2.5915713    -3.8132573    -1.3541911
H           0.8342444    -3.7313855    -1.5627673
N           1.8020431    -1.8543345    -1.4775938
C           1.5537313    -0.9966198    -2.5222373
C           1.4072146    -1.8461413    -3.7872291
H           1.9230591    -1.3752422    -4.6277009
H           0.3403509    -1.8898565    -4.0425250
O           1.4464897     0.2174548    -2.4347258
22
148_C7H13NO_16-0-7-3 (105,) energy =    -404.5699048
C           1.9064112    -1.2748496    -0.1432705
H           1.1967948    -1.8521318     0.4655176
H           1.5563791    -0.2389104    -0.1698074
C           4.0163126     0.0146863     0.5488318
H           5.0359820    -0.0720613     0.9412206
H           3.4602711     0.6922891     1.2075195
H           4.0686168     0.4859183    -0.4392894
C           3.3286789    -1.3530217     0.4680214
H           3.9378981    -2.0452066    -0.1262426
H           3.2681088    -1.7852895     1.4753310
C           1.9181042    -3.2012802    -3.3744744
H           1.3790239    -4.0360725    -3.8304382
H           2.9769166    -3.3066361    -3.6342988
C           1.7642765    -3.1822437    -1.8374599
H           2.5604027    -3.7400633    -1.3304034
H           0.8028981    -3.6133810    -1.5137800
N           1.8270391    -1.7648226    -1.5098291
C           1.5987820    -0.9346995    -2.5804792
C           1.4040911    -1.8208503    -3.8134185
H           1.9253513    -1.3980113    -4.6758216
H           0.3330296    -1.8340728    -4.0539853
O           1.5388854     0.2849706    -2.5340533
22
148_C7H13NO_16-0-7-3 (120,) energy =    -404.5691088
C           1.9748452    -1.1582208    -0.2415508
H           1.2109762    -1.6290409     0.3935421
H           1.7147117    -0.1002112    -0.3399703
C           4.0236197     0.0330418     0.7515895
H           5.0216099    -0.1024450     1.1837415
H           3.4154979     0.5793079     1.4828525
H           4.1207606     0.6664992    -0.1375310
C           3.3826737    -1.3128143     0.3939050
H           4.0313538    -1.8453146    -0.3125353
H           3.3236049    -1.9409349     1.2916870
C           1.8924008    -3.2309953    -3.3782277
H           1.3458744    -4.0906449    -3.7753401
H           2.9424282    -3.3392294    -3.6705311
C           1.7930075    -3.1405490    -1.8398270
H           2.6058910    -3.6755354    -1.3351011
H           0.8427811    -3.5534430    -1.4630226
N           1.8692655    -1.7091162    -1.5819539
C           1.5759360    -0.9321141    -2.6779716
C           1.3490500    -1.8768944    -3.8608570
H           1.8345309    -1.4892739    -4.7599700
H           0.2702888    -1.9105405    -4.0618168
O           1.4903587     0.2865042    -2.6848110
22
148_C7H13NO_16-0-7-3 (135,) energy =    -404.5699426
C           2.0321476    -1.0655933    -0.3274323
H           1.2462412    -1.4434855     0.3426863
H           1.8430711     0.0004782    -0.4864306
C           3.9925006     0.0167430     0.9214750
H           4.9771155    -0.1543867     1.3709484
H           3.3326048     0.4045551     1.7074896
H           4.0977280     0.7986305     0.1608614
C           3.4320715    -1.2693740     0.3035758
H           4.1173935    -1.6108535    -0.4824075
H           3.4018177    -2.0658676     1.0577667
C           1.8553383    -3.2695963    -3.3694873
H           1.2957271    -4.1431074    -3.7147480
H           2.8964412    -3.3938921    -3.6862223
C           1.7989868    -3.1145016    -1.8339521
H           2.6262492    -3.6277442    -1.3302941
H           0.8600156    -3.5113660    -1.4142171
N           1.8818555    -1.6733588    -1.6380019
C           1.5603614    -0.9422376    -2.7575173
C           1.3014457    -1.9353206    -3.8932699
H           1.7635313    -1.5862391    -4.8200659
H           0.2177362    -1.9747107    -4.0642570
O           1.4757638     0.2750759    -2.8142746
22
148_C7H13NO_16-0-7-3 (150,) energy =    -404.5717161
C           2.1033752    -1.0105863    -0.3985767
H           1.3239256    -1.3339602     0.3075178
H           1.9434435     0.0529951    -0.6019171
C           3.9504373    -0.0356164     1.0719114
H           4.9414915    -0.2104998     1.5049709
H           3.2546410     0.1441308     1.9011388
H           3.9993432     0.8819208     0.4746293
C           3.5053362    -1.2217187     0.2092902
H           4.2178380    -1.3476188    -0.6159104
H           3.5365960    -2.1494398     0.7952984
C           1.7987341    -3.3386063    -3.3377009
H           1.2108933    -4.2126932    -3.6306042
H           2.8279336    -3.5001165    -3.6757674
C           1.7874882    -3.1177769    -1.8092667
H           2.6150188    -3.6308625    -1.3063361
H           0.8504694    -3.4724444    -1.3493324
N           1.9108438    -1.6717748    -1.6774852
C           1.5715157    -0.9815428    -2.8179212
C           1.2605919    -2.0151020    -3.9032499
H           1.7051927    -1.7160254    -4.8557454
H           0.1720713    -2.0362185    -4.0442971
O           1.5089824     0.2337683    -2.9236460
22
148_C7H13NO_16-0-7-3 (165,) energy =    -404.5734091
C           2.1733791    -0.9333454    -0.4408983
H           1.4235778    -1.2403084     0.3040586
H           2.0046112     0.1244235    -0.6665190
C           3.9204106    -0.0979995     1.2105082
H           4.9256891    -0.2583147     1.6149741
H           3.2135082    -0.1587194     2.0475974
H           3.8765966     0.9223441     0.8124103
C           3.5911517    -1.1244985     0.1216488
H           4.3043446    -1.0208450    -0.7057918
H           3.7113291    -2.1424465     0.5159872
C           1.7495508    -3.3621370    -3.2831035
H           1.1273005    -4.2243336    -3.5376838
H           2.7690776    -3.5746568    -3.6222796
C           1.7600641    -3.0830418    -1.7640972
H           2.5723379    -3.6078274    -1.2488694
H           0.8147748    -3.3853255    -1.2843116
N           1.9366825    -1.6383352    -1.6887327
C           1.6175309    -0.9805451    -2.8537053
C           1.2559141    -2.0421160    -3.8953754
H           1.7019010    -1.7973890    -4.8626054
H           0.1659888    -2.0271520    -4.0259984
O           1.6038018     0.2313497    -3.0063308
22
148_C7H13NO_16-0-7-3 (180,) energy =    -404.5741304
C           2.2121483    -0.8468049    -0.4774993
H           1.5054144    -1.1694502     0.3021338
H           1.9974593     0.2004379    -0.7118818
C           3.8900324    -0.1818747     1.3147224
H           4.9264210    -0.2769319     1.6561039
H           3.2390433    -0.5261010     2.1279771
H           3.6875143     0.8841536     1.1562923
C           3.6535029    -0.9859667     0.0325315
H           4.3360728    -0.6475660    -0.7566724
H           3.8830425    -2.0448704     0.2141299
C           1.7020162    -3.3800872    -3.2119715
H           1.0471673    -4.2272301    -3.4332003
H           2.7142742    -3.6479297    -3.5333006
C           1.7143070    -3.0346998    -1.7066557
H           2.5005659    -3.5695054    -1.1620483
H           0.7541919    -3.2761920    -1.2220670
N           1.9493122    -1.5965981    -1.6939832
C           1.6662800    -0.9788957    -2.8893323
C           1.2659449    -2.0696621    -3.8858666
H           1.7269320    -1.8870792    -4.8597666
H           0.1782879    -2.0161283    -4.0249870
O           1.7052917     0.2248198    -3.0939427
