25
230_C8H13N3O_5-7-17-16 (-165,) energy =    -552.1642078
C           1.4471211    -1.3868146    -1.3940714
C           0.2522391    -1.3813831    -2.3404608
H          -0.3992132    -2.2296674    -2.0997592
H           0.6126022    -1.5217161    -3.3620135
H          -0.3425531    -0.4634055    -2.2879090
N           1.3592496    -0.5113654    -0.3402478
H           0.4670009    -0.0572404    -0.2016625
C           2.2242642    -0.5735813     0.8508889
C           2.0795777    -1.9075492     1.6009996
H           2.7055428    -1.8967029     2.4948212
H           2.4008839    -2.7327569     0.9618019
H           1.0330393    -2.0590435     1.8889815
H           1.8326540     0.2215750     1.5009957
O           2.4175336    -2.1104620    -1.5756703
C           5.7768008    -0.0061648     1.0669804
H           6.6988457    -0.1169707     1.6219283
N           4.6002521    -0.5524974     1.5133422
C           3.6870802    -0.2479540     0.6067857
N           4.2258408     0.5130836    -0.4051656
C           3.6161170     1.0331633    -1.6228015
H           4.3133880     1.7415870    -2.0754785
H           2.6842110     1.5546538    -1.3985913
H           3.4178037     0.2242541    -2.3305032
C           5.5715587     0.6530026    -0.1142698
H           6.2331308     1.1901361    -0.7781137
25
230_C8H13N3O_5-7-17-16 (-150,) energy =    -552.1651584
C           1.5246291    -1.4717414    -1.3914870
C           0.3703875    -1.5421369    -2.3854565
H          -0.2648779    -2.4004772    -2.1372259
H           0.7781890    -1.7116322    -3.3844946
H          -0.2532981    -0.6420399    -2.3953419
N           1.3607888    -0.5590895    -0.3772176
H           0.4433961    -0.1452790    -0.2810825
C           2.1972978    -0.5267639     0.8368786
C           1.9885803    -1.7710525     1.7120851
H           2.5816997    -1.6938716     2.6250836
H           2.3094242    -2.6642966     1.1714780
H           0.9283078    -1.8655661     1.9724653
H           1.8255466     0.3482514     1.3908055
O           2.5229265    -2.1690636    -1.5034320
C           5.7963795    -0.2721231     0.8756661
H           6.7431255    -0.5204787     1.3363791
N           4.6131893    -0.7842216     1.3475701
C           3.6684718    -0.2969745     0.5641820
N           4.1939400     0.5466678    -0.3872414
C           3.5257559     1.2615456    -1.4645381
H           4.2033538     2.0334783    -1.8370612
H           2.6148097     1.7424735    -1.1031529
H           3.2701958     0.5848580    -2.2853563
C           5.5638874     0.5477284    -0.1952866
H           6.2189992     1.1173823    -0.8382630
25
230_C8H13N3O_5-7-17-16 (-135,) energy =    -552.1655587
C           1.5684086    -1.6204775    -1.3731315
C           0.4629987    -1.7178888    -2.4199976
H          -0.1992453    -2.5530613    -2.1643207
H           0.9177818    -1.9436478    -3.3873746
H          -0.1421070    -0.8093328    -2.5074857
N           1.4007521    -0.6165402    -0.4485895
H           0.5041212    -0.1500528    -0.4363068
C           2.2079803    -0.4869107     0.7809157
C           1.9530104    -1.6352686     1.7658166
H           2.5187035    -1.4791722     2.6870873
H           2.2757852    -2.5808675     1.3261907
H           0.8844300    -1.6882427     2.0020844
H           1.8477514     0.4476162     1.2369137
O           2.5276089    -2.3770304    -1.3706031
C           5.8190194    -0.4917168     0.6480304
H           6.7718895    -0.8606258     1.0032267
N           4.6332252    -0.9762555     1.1432334
C           3.6831818    -0.3268185     0.4993813
N           4.2085090     0.5848356    -0.3871222
C           3.5055923     1.4890889    -1.2820697
H           4.1963422     2.2746518    -1.5976740
H           2.6622856     1.9583755    -0.7681705
H           3.1296407     0.9663845    -2.1668133
C           5.5835483     0.4697069    -0.2988204
H           6.2388872     1.0718815    -0.9112863
25
230_C8H13N3O_5-7-17-16 (-120,) energy =    -552.1649661
C           1.5662634    -1.7522217    -1.3412138
C           0.5012850    -1.8718424    -2.4279738
H          -0.2300309    -2.6327933    -2.1319230
H           0.9809288    -2.2163105    -3.3470795
H          -0.0322917    -0.9363912    -2.6271944
N           1.4198159    -0.6646818    -0.5119423
H           0.5582977    -0.1423459    -0.5910944
C           2.1973755    -0.4461914     0.7264363
C           1.9176092    -1.5208036     1.7849415
H           2.4446572    -1.2864588     2.7136490
H           2.2678852    -2.4913223     1.4307025
H           0.8419026    -1.5701186     1.9862744
H           1.8298224     0.5189387     1.1037306
O           2.4708769    -2.5641880    -1.2290474
C           5.8007949    -0.6225977     0.4614043
H           6.7443999    -1.0878331     0.7132325
N           4.6126728    -1.1016837     0.9547245
C           3.6772633    -0.3142880     0.4622105
N           4.2156908     0.6701190    -0.3354155
C           3.5122604     1.6996891    -1.0803015
H           4.2234412     2.4783096    -1.3654362
H           2.7357622     2.1571345    -0.4594715
H           3.0443802     1.2926111    -1.9823107
C           5.5823756     0.4665887    -0.3419590
H           6.2455389     1.1085953    -0.9034533
25
230_C8H13N3O_5-7-17-16 (-105,) energy =    -552.1631882
C           1.5277111    -1.8856900    -1.2107891
C           0.5441564    -2.0167529    -2.3715297
H          -0.1844265    -2.7984950    -2.1317892
H           1.0953954    -2.3457813    -3.2566941
H           0.0046773    -1.0940857    -2.6100851
N           1.4504162    -0.6971222    -0.5252343
H           0.6874600    -0.0794196    -0.7614534
C           2.2093163    -0.3656699     0.7005578
C           1.9127324    -1.3399778     1.8485982
H           2.4198786    -1.0126242     2.7610605
H           2.2733018    -2.3363517     1.5921328
H           0.8339622    -1.3767801     2.0344083
H           1.8372340     0.6277531     0.9832593
O           2.3131357    -2.7771167    -0.9317128
C           5.7949622    -0.6685513     0.3018219
H           6.7216900    -1.2058455     0.4527518
N           4.6040661    -1.1472240     0.7875511
C           3.6935856    -0.2569662     0.4465140
N           4.2522927     0.7885980    -0.2568147
C           3.5663934     1.9158196    -0.8630687
H           4.3070293     2.6509519    -1.1847248
H           2.9000935     2.3978783    -0.1402376
H           2.9774400     1.6012041    -1.7314506
C           5.6041280     0.5215847    -0.3525393
H           6.2786268     1.1964121    -0.8594295
25
230_C8H13N3O_5-7-17-16 (-90,) energy =    -552.1613889
C           1.2893379    -2.1141504    -1.1444229
C           0.6035519    -2.2082821    -2.5060364
H           0.0130264    -3.1266801    -2.5330908
H           1.3684886    -2.2818013    -3.2878788
H          -0.0453175    -1.3557566    -2.7342983
N           1.3647733    -0.8369385    -0.6391411
H           1.0468155    -0.0954576    -1.2469808
C           2.1311426    -0.4105314     0.5513974
C           1.8240512    -1.2687584     1.7853232
H           2.2773086    -0.8075788     2.6690213
H           2.2280292    -2.2718343     1.6605091
H           0.7414311    -1.3316484     1.9340900
H           1.7692465     0.6052932     0.7515904
O           1.7228124    -3.1034410    -0.5763954
C           5.6892364    -0.8396628     0.0166029
H           6.5829386    -1.4484229     0.0502404
N           4.4790861    -1.3220963     0.4487353
C           3.6180498    -0.3361540     0.2850105
N           4.2315022     0.7799271    -0.2467178
C           3.6233391     2.0485747    -0.6102378
H           4.4137309     2.7655779    -0.8410149
H           3.0305807     2.4504598     0.2171394
H           2.9801683     1.9488083    -1.4927471
C           5.5633297     0.4538324    -0.4204778
H           6.2719133     1.1659606    -0.8179373
25
230_C8H13N3O_5-7-17-16 (-75,) energy =    -552.1608657
C           1.0522302    -2.2268361    -1.0353655
C           0.5286983    -2.4466124    -2.4531728
H          -0.1191593    -3.3252769    -2.4510352
H           1.3740573    -2.6522506    -3.1208454
H          -0.0244904    -1.5887711    -2.8509777
N           1.2789750    -0.9021301    -0.7275806
H           1.2198191    -0.2649499    -1.5111208
C           2.0443147    -0.3772133     0.4212462
C           1.7648069    -1.1269087     1.7307503
H           2.2071957    -0.5630864     2.5596765
H           2.1957238    -2.1256791     1.7041051
H           0.6867871    -1.2115416     1.8968609
H           1.6785955     0.6493976     0.5471849
O           1.2284594    -3.1581751    -0.2671324
C           5.5755744    -0.8346993    -0.2484810
H           6.4410306    -1.4760026    -0.3497382
N           4.3440177    -1.3424783     0.0818404
C           3.5266709    -0.3072950     0.1236061
N           4.1880032     0.8652162    -0.1753962
C           3.6558585     2.2194147    -0.1911370
H           4.4285614     2.8943250    -0.5641691
H           3.3640323     2.5472136     0.8124243
H           2.7883048     2.2958808    -0.8541905
C           5.5077577     0.5254407    -0.4092988
H           6.2474007     1.2722169    -0.6586755
25
230_C8H13N3O_5-7-17-16 (-60,) energy =    -552.1612447
C           0.9582251    -2.2959363    -1.0021473
C           0.5278889    -2.6765684    -2.4164693
H          -0.1846565    -3.5012730    -2.3533448
H           1.4051321    -3.0287498    -2.9723058
H           0.0765379    -1.8479304    -2.9729432
N           1.2529368    -0.9563376    -0.8550144
H           1.3089794    -0.4400078    -1.7235517
C           2.0035356    -0.3277646     0.2453857
C           1.7407856    -0.9597767     1.6205297
H           2.2000097    -0.3252675     2.3876937
H           2.1654075    -1.9600561     1.6781043
H           0.6664244    -1.0250506     1.8147450
H           1.6291135     0.7033464     0.2878962
O           1.0064649    -3.1225824    -0.1056718
C           5.5126717    -0.8160845    -0.5083886
H           6.3472460    -1.4674303    -0.7315392
N           4.2496646    -1.3146427    -0.3066873
C           3.4831923    -0.2665458    -0.0704885
N           4.2079230     0.9046106    -0.1101640
C           3.7422182     2.2599771     0.1434009
H           4.5522794     2.9557664    -0.0834733
H           3.4514223     2.3941614     1.1907948
H           2.8893214     2.5086499    -0.4955556
C           5.5154990     0.5498997    -0.3879824
H           6.2964039     1.2917916    -0.4694024
25
230_C8H13N3O_5-7-17-16 (-45,) energy =    -552.1622732
C           0.1936310    -0.5742584    -0.8084094
C          -0.9714759     0.2807062    -0.3202078
H          -1.8604724     0.0235929    -0.8986640
H          -0.7374086     1.3370180    -0.4998385
H          -1.1803709     0.1515836     0.7475313
N           1.1655193    -0.7813604     0.1512076
H           1.0718459    -0.1923672     0.9693162
C           2.5518120    -1.2012318    -0.0915989
C           2.7021381    -2.2635917    -1.1929561
H           3.7355919    -2.6305969    -1.1891372
H           2.4685299    -1.8498026    -2.1719490
H           2.0319689    -3.1071857    -1.0034325
H           2.8743086    -1.6695809     0.8487479
O           0.2229376    -1.0360986    -1.9375919
C           4.2458538     1.8389978    -1.0992667
H           4.2682097     2.7669680    -1.6549622
N           3.1407515     1.0228403    -1.1123903
C           3.4407733     0.0016640    -0.3324826
N           4.7104032     0.1208275     0.1870177
C           5.4146751    -0.8128239     1.0522509
H           4.8236197    -1.0412317     1.9446743
H           6.3531409    -0.3554870     1.3715912
H           5.6426098    -1.7481931     0.5299244
C           5.2296025     1.3032051    -0.3091406
H           6.2236348     1.6361393    -0.0483925
25
230_C8H13N3O_5-7-17-16 (-30,) energy =    -552.1635143
C           0.3229420    -0.5225966    -0.8176965
C          -0.8721761     0.3497990    -0.4527610
H          -1.6802886     0.1533895    -1.1590605
H          -0.5803042     1.4034322    -0.5397885
H          -1.2273337     0.1748544     0.5689542
N           1.1939450    -0.7347623     0.2368700
H           1.0400837    -0.1123675     1.0210221
C           2.6005638    -1.1241553     0.1005343
C           2.8358122    -2.2616458    -0.9083395
H           3.8735955    -2.6056473    -0.8284574
H           2.6383644    -1.9318375    -1.9264225
H           2.1746019    -3.1038827    -0.6830654
H           2.8816950    -1.5160401     1.0891368
O           0.4597908    -0.9985522    -1.9328847
C           4.1466628     2.0024428    -0.8869170
H           4.0892931     2.9734793    -1.3603206
N           3.0499305     1.1767980    -0.8116285
C           3.4582610     0.0963908    -0.1736141
N           4.7870457     0.1899635     0.1745743
C           5.6172342    -0.8068439     0.8310681
H           5.0384281    -1.3456644     1.5855455
H           6.4483750    -0.3051585     1.3323717
H           6.0220528    -1.5308226     0.1148253
C           5.2313325     1.4152670    -0.2907413
H           6.2505859     1.7399631    -0.1395361
25
230_C8H13N3O_5-7-17-16 (-15,) energy =    -552.1643277
C           0.2905063    -0.6106237    -0.9343928
C          -0.9224330     0.2719174    -0.6725327
H          -1.6640876     0.0949051    -1.4530218
H          -0.6070783     1.3212067    -0.7194174
H          -1.3724286     0.0911082     0.3099697
N           1.0553208    -0.8524864     0.1956463
H           0.8517021    -0.2168972     0.9578667
C           2.4676402    -1.2399320     0.1568396
C           2.7321874    -2.4530489    -0.7530695
H           3.7575785    -2.8108735    -0.6110983
H           2.5743378    -2.1992004    -1.7996046
H           2.0478380    -3.2649191    -0.4876216
H           2.7032483    -1.5551296     1.1846545
O           0.5307815    -1.0719949    -2.0382047
C           3.9659130     1.9250058    -0.7914239
H           3.8727472     2.9322369    -1.1747966
N           2.8687585     1.1075494    -0.6523163
C           3.3280356    -0.0303639    -0.1668069
N           4.6888518     0.0221150     0.0319566
C           5.5675389    -1.0182564     0.5416186
H           5.0440052    -1.6235824     1.2858000
H           6.4293527    -0.5522588     1.0257349
H           5.9246538    -1.6751701    -0.2593003
C           5.0999171     1.2788498    -0.3774271
H           6.1367441     1.5778578    -0.3238858
25
230_C8H13N3O_5-7-17-16 (0,) energy =    -552.1642449
C           0.3619420    -0.5904221    -0.9767893
C          -0.8837897     0.2684472    -0.8127957
H          -1.5469508     0.0975613    -1.6622591
H          -0.5818158     1.3227062    -0.8086667
H          -1.4190063     0.0601165     0.1201588
N           1.0296982    -0.8368890     0.2116702
H           0.7715649    -0.1952390     0.9519203
C           2.4446609    -1.2127092     0.2646384
C           2.7342148    -2.4840803    -0.5546082
H           3.7285122    -2.8762291    -0.3214910
H           2.6562622    -2.2880250    -1.6227729
H           1.9996510    -3.2516040    -0.2920116
H           2.6346954    -1.4606620     1.3201103
O           0.7112170    -1.0305398    -2.0606286
C           3.8980869     2.0006570    -0.5860148
H           3.7780848     3.0407975    -0.8577495
N           2.8123028     1.1785672    -0.3987927
C           3.3044402    -0.0082574    -0.0930202
N           4.6796498     0.0198546    -0.0465130
C           5.6034051    -1.0526150     0.2903097
H           5.2110385    -1.6489585     1.1183948
H           6.5513429    -0.6121508     0.6075663
H           5.7891665    -1.7111280    -0.5645952
C           5.0603556     1.3104532    -0.3723557
H           6.1016361     1.5948945    -0.4183112
25
230_C8H13N3O_5-7-17-16 (15,) energy =    -552.1636039
C           0.4663639    -0.6379051    -1.0108035
C          -0.8130614     0.1848439    -0.9817525
H          -1.3753791    -0.0001302    -1.8983662
H          -0.5451140     1.2476601    -0.9419970
H          -1.4387224    -0.0438678    -0.1121803
N           1.0146370    -0.8693178     0.2385886
H           0.6943205    -0.2149966     0.9425522
C           2.4256782    -1.2333374     0.4061008
C           2.7528651    -2.5583623    -0.3055339
H           3.6882134    -2.9840342     0.0679449
H           2.8088213    -2.4258106    -1.3855609
H           1.9534676    -3.2739784    -0.0917817
H           2.5422154    -1.4118991     1.4854323
O           0.9462967    -1.0645583    -2.0500905
C           3.8762418     2.0084552    -0.3131164
H           3.7507049     3.0726127    -0.4614953
N           2.8028671     1.1849113    -0.0763050
C           3.2963408    -0.0362420     0.0390571
N           4.6665940    -0.0308290    -0.0907478
C           5.6115676    -1.1348855     0.0060540
H           5.4498020    -1.7082893     0.9234085
H           6.6214062    -0.7209813     0.0370210
H           5.5337906    -1.8065355    -0.8535140
C           5.0361914     1.2832224    -0.3233377
H           6.0699789     1.5557378    -0.4787530
25
230_C8H13N3O_5-7-17-16 (30,) energy =    -552.1632749
C           0.5525361    -0.6060362    -1.0699643
C          -0.7452894     0.1794516    -1.1847830
H          -1.2058555    -0.0347458    -2.1506065
H          -0.5163004     1.2511901    -1.1368376
H          -1.4489878    -0.0561139    -0.3793262
N           0.9748061    -0.8176445     0.2282972
H           0.5890198    -0.1587678     0.8939155
C           2.3686363    -1.1784406     0.5249044
C           2.7266727    -2.5486737    -0.0695240
H           3.6441106    -2.9434000     0.3762106
H           2.8265635    -2.5012975    -1.1537052
H           1.9168216    -3.2454913     0.1661952
H           2.3936538    -1.2915213     1.6180192
O           1.1565381    -1.0194015    -2.0496707
C           3.8815229     2.0605819    -0.0203640
H           3.7825462     3.1378433    -0.0291585
N           2.8174103     1.2435426     0.2676635
C           3.2702528     0.0032371     0.1781998
N           4.6073452    -0.0119283    -0.1466075
C           5.5169064    -1.1350724    -0.3366874
H           5.6065401    -1.7322147     0.5756896
H           6.5026775    -0.7358203    -0.5825382
H           5.1869364    -1.7779226    -1.1555472
C           4.9964814     1.3106755    -0.2771386
H           6.0090400     1.5718741    -0.5480773
25
230_C8H13N3O_5-7-17-16 (45,) energy =    -552.1637761
C           0.7253385    -0.6392849    -1.0845170
C          -0.5752990     0.0933008    -1.3774292
H          -0.9391397    -0.2095602    -2.3609738
H          -0.3797642     1.1724974    -1.4005939
H          -1.3455438    -0.0993241    -0.6235570
N           0.9942017    -0.8236116     0.2545251
H           0.5211366    -0.1772446     0.8741600
C           2.3532178    -1.1762959     0.7028567
C           2.7416457    -2.5898642     0.2567697
H           3.6672749    -2.9117927     0.7443814
H           2.8465815    -2.6614308    -0.8249098
H           1.9463720    -3.2746333     0.5665691
H           2.2664960    -1.2097498     1.7965875
O           1.4681555    -1.0352348    -1.9744059
C           3.9516998     2.0338386     0.3123011
H           3.9066710     3.1066818     0.4448571
N           2.9175967     1.2185558     0.6948592
C           3.2971670    -0.0167410     0.4052929
N           4.5479011    -0.0298153    -0.1646820
C           5.3079629    -1.1340096    -0.7389545
H           5.5302999    -1.8981715     0.0096736
H           6.2526354    -0.7359493    -1.1140932
H           4.7630134    -1.5873036    -1.5702606
C           4.9678131     1.2879863    -0.2213110
H           5.9285890     1.5509256    -0.6389475
25
230_C8H13N3O_5-7-17-16 (60,) energy =    -552.1668810
C           0.8926936    -0.6588872    -1.1163859
C          -0.4132251    -0.0000324    -1.5351938
H          -0.7703441    -0.4764471    -2.4508299
H          -0.2243739     1.0567757    -1.7584279
H          -1.1897868    -0.0588228    -0.7661204
N           1.0790805    -0.7777029     0.2369253
H           0.5120286    -0.1777546     0.8215254
C           2.3952100    -1.1268207     0.8063336
C           2.7976097    -2.5690465     0.4811035
H           3.7407227    -2.8216323     0.9778810
H           2.8914218    -2.7404115    -0.5899708
H           2.0237732    -3.2408628     0.8654274
H           2.2218421    -1.0906905     1.8879004
O           1.7118351    -1.0541977    -1.9411699
C           4.1455168     2.0098156     0.5716314
H           4.2025124     3.0575633     0.8357918
N           3.1463080     1.2016851     1.0482824
C           3.3903062    -0.0060277     0.5598290
N           4.5043035    -0.0015615    -0.2448039
C           5.0124085    -1.0495076    -1.1247155
H           5.3288797    -1.9268548    -0.5553853
H           5.8782781    -0.6539137    -1.6592055
H           4.2406439    -1.3329611    -1.8438858
C           4.9928941     1.2910220    -0.2306102
H           5.8840331     1.5587084    -0.7792424
25
230_C8H13N3O_5-7-17-16 (75,) energy =    -552.1693023
C           0.8911033    -0.7331911    -1.1644228
C          -0.4182223    -0.1175910    -1.6388932
H          -0.7932945    -0.7010321    -2.4827217
H          -0.2258989     0.9007057    -1.9967210
H          -1.1842496    -0.0731085    -0.8584358
N           1.0812010    -0.7213130     0.1891729
H           0.4716297    -0.1197079     0.7266213
C           2.3631634    -1.0522297     0.8478215
C           2.7753714    -2.5101079     0.6107097
H           3.7088616    -2.7258610     1.1420108
H           2.8994913    -2.7388626    -0.4465484
H           1.9967823    -3.1685968     1.0087137
H           2.1344010    -0.9552216     1.9135921
O           1.7018713    -1.2036758    -1.9589057
C           4.3343869     1.9588730     0.8152737
H           4.5065929     2.9561014     1.1982050
N           3.3159583     1.1731555     1.2883994
C           3.4011801     0.0288237     0.6236629
N           4.4368815     0.0527724    -0.2794898
C           4.8385652    -0.9569174    -1.2557673
H           5.2888617    -1.8243329    -0.7630942
H           5.5812628    -0.5102417    -1.9199031
H           3.9701410    -1.2670184    -1.8388499
C           5.0399494     1.2881187    -0.1504368
H           5.8997504     1.5560332    -0.7470194
25
230_C8H13N3O_5-7-17-16 (90,) energy =    -552.1700206
C           0.8894657    -0.7887950    -1.2625103
C          -0.4337802    -0.2166120    -1.7558208
H          -0.9930883    -1.0136872    -2.2544200
H          -0.2258764     0.5537925    -2.5053061
H          -1.0566041     0.2144227    -0.9660919
N           1.1320728    -0.6237068     0.0689679
H           0.5198511     0.0071530     0.5671967
C           2.3722895    -0.9801451     0.7937975
C           2.7721192    -2.4480927     0.5900597
H           3.6526698    -2.6733322     1.2012196
H           2.9846057    -2.6843211    -0.4511975
H           1.9518116    -3.0940548     0.9196229
H           2.0970569    -0.8656478     1.8459171
O           1.6497084    -1.3700655    -2.0348023
C           4.6163543     1.8219811     1.0709286
H           4.9186223     2.7168538     1.5986400
N           3.5577275     1.0607887     1.4948986
C           3.4646660     0.0562728     0.6341275
N           4.4300531     0.1444709    -0.3413474
C           4.7131556    -0.7592172    -1.4540942
H           5.3059864    -1.6178223    -1.1195312
H           5.2868468    -0.2095618    -2.2039661
H           3.7782185    -1.1019330    -1.8989404
C           5.1710654     1.2738685    -0.0568179
H           6.0070313     1.5647088    -0.6763754
25
230_C8H13N3O_5-7-17-16 (105,) energy =    -552.1695978
C           0.8721338    -0.9155871    -1.3108380
C          -0.4266823    -0.3495216    -1.8736444
H          -1.0435461    -1.1820019    -2.2245379
H          -0.1920060     0.2710170    -2.7444816
H          -1.0045411     0.2447067    -1.1591915
N           1.1619305    -0.5338781    -0.0352651
H           0.5678167     0.1756861     0.3703013
C           2.3374865    -0.8893525     0.7897574
C           2.7276903    -2.3712530     0.6813650
H           3.5046366    -2.5837356     1.4230357
H           3.0902423    -2.6441368    -0.3083905
H           1.8577745    -2.9982077     0.9026299
H           2.0016656    -0.7219175     1.8170013
O           1.5747520    -1.6647680    -1.9874899
C           4.8317133     1.6694715     1.2451477
H           5.2533414     2.4533248     1.8603082
N           3.7340608     0.9519483     1.6481052
C           3.4822323     0.0939358     0.6695762
N           4.3851320     0.2307650    -0.3591728
C           4.5322124    -0.5535096    -1.5822264
H           5.2816455    -1.3420249    -1.4471361
H           4.8621855     0.1085310    -2.3876955
H           3.5785453    -1.0026360    -1.8620453
C           5.2500830     1.2405900     0.0122462
H           6.0623464     1.5459967    -0.6316214
25
230_C8H13N3O_5-7-17-16 (120,) energy =    -552.1686725
C           0.9359292    -1.0757418    -1.2972647
C          -0.3269586    -0.5306248    -1.9556643
H          -1.0667694    -1.3359388    -2.0101490
H          -0.0882622    -0.2387210    -2.9823270
H          -0.7742095     0.3217721    -1.4348573
N           1.2471513    -0.5103587    -0.0957961
H           0.6738157     0.2677193     0.1987733
C           2.3316743    -0.8576641     0.8462541
C           2.6959154    -2.3516634     0.8500961
H           3.3680981    -2.5333699     1.6946866
H           3.1813810    -2.6740887    -0.0699576
H           1.7950227    -2.9588579     0.9838418
H           1.9238590    -0.6302573     1.8358238
O           1.5926835    -1.9642312    -1.8361504
C           5.0510443     1.4263502     1.4485845
H           5.5801131     2.0802189     2.1291545
N           3.9135346     0.7602762     1.8313279
C           3.5284853     0.0653049     0.7715433
N           4.3861491     0.2501628    -0.2872491
C           4.3443599    -0.3157671    -1.6311503
H           5.2942413    -0.8139486    -1.8504511
H           4.1859416     0.4778284    -2.3699145
H           3.5343477    -1.0400157    -1.7181597
C           5.3590860     1.1288847     0.1465673
H           6.1553701     1.4511826    -0.5090338
25
230_C8H13N3O_5-7-17-16 (135,) energy =    -552.1675016
C           1.0160400    -1.1400326    -1.3438281
C          -0.2140801    -0.6267734    -2.0857834
H          -0.9855528    -1.4034872    -2.0599689
H           0.0509335    -0.4671647    -3.1346973
H          -0.6345859     0.2973071    -1.6766652
N           1.3163691    -0.4632172    -0.1961718
H           0.7414245     0.3409579     0.0127645
C           2.3299231    -0.7717339     0.8312319
C           2.6485508    -2.2722050     0.9572893
H           3.2697573    -2.4077727     1.8477453
H           3.1753886    -2.6628192     0.0874958
H           1.7258167    -2.8483107     1.0801119
H           1.8785478    -0.4661052     1.7803775
O           1.6603270    -2.0917051    -1.7766302
C           5.2661577     1.2183945     1.4529343
H           5.9018140     1.7397285     2.1563128
N           4.1014262     0.6108403     1.8510996
C           3.5772912     0.0833260     0.7557343
N           4.3745651     0.3091994    -0.3408387
C           4.1641137    -0.0752641    -1.7314871
H           5.1380788    -0.2266303    -2.2037271
H           3.6269388     0.7087765    -2.2781574
H           3.5918749    -1.0014806    -1.7932246
C           5.4523842     1.0497581     0.1056693
H           6.2249022     1.3796645    -0.5738311
25
230_C8H13N3O_5-7-17-16 (150,) energy =    -552.1656173
C           1.0818176    -1.2068816    -1.3521205
C          -0.1483352    -0.7759722    -2.1446991
H          -0.8990976    -1.5708542    -2.0825033
H           0.1306991    -0.6746881    -3.1971382
H          -0.6012816     0.1595010    -1.8011215
N           1.3351318    -0.4602905    -0.2353947
H           0.7124496     0.3175958    -0.0692915
C           2.3036379    -0.7172634     0.8454141
C           2.5443031    -2.2159084     1.1057181
H           3.1540161    -2.3054107     2.0088979
H           3.0545785    -2.6977255     0.2723791
H           1.5908439    -2.7300759     1.2680361
H           1.8350747    -0.3147869     1.7492291
O           1.7713373    -2.1520412    -1.7227196
C           5.4391431     0.9501664     1.4316080
H           6.1691145     1.3230383     2.1377902
N           4.2630103     0.3800112     1.8487532
C           3.6092918     0.0503549     0.7458952
N           4.3324382     0.3668531    -0.3788833
C           4.0044586     0.1610332    -1.7852769
H           4.9232028     0.2587913    -2.3675854
H           3.2858451     0.9095688    -2.1366596
H           3.5881274    -0.8351246    -1.9412065
C           5.5029471     0.9562672     0.0631857
H           6.2438389     1.3188739    -0.6343320
25
230_C8H13N3O_5-7-17-16 (165,) energy =    -552.1637906
C           1.2166724    -1.2713730    -1.3796221
C          -0.0267741    -0.9815275    -2.2136536
H          -0.7550932    -1.7839099    -2.0514203
H           0.2488529    -0.9991313    -3.2710538
H          -0.5070480    -0.0253347    -1.9816258
N           1.3742605    -0.4703277    -0.2815284
H           0.6576080     0.2243116    -0.1278307
C           2.3061429    -0.6716442     0.8406112
C           2.4209011    -2.1472579     1.2670075
H           3.0370616    -2.1961691     2.1677303
H           2.8764261    -2.7499546     0.4811556
H           1.4266712    -2.5513041     1.4890434
H           1.8436679    -0.1379777     1.6780442
O           2.0040961    -2.1565321    -1.6963406
C           5.6188791     0.6461775     1.3466625
H           6.4290582     0.8582417     2.0316606
N           4.4468860     0.0776660     1.7757973
C           3.6825167    -0.0365632     0.7013109
N           4.3219919     0.4346161    -0.4196652
C           3.8861768     0.4630283    -1.8121017
H           4.7215843     0.8167618    -2.4195577
H           3.0430876     1.1470094    -1.9461215
H           3.5995007    -0.5362886    -2.1430480
C           5.5660346     0.8756982    -0.0018880
H           6.2704205     1.3012824    -0.7013964
25
230_C8H13N3O_5-7-17-16 (180,) energy =    -552.1633773
C           1.3457906    -1.3401860    -1.3952089
C           0.1168577    -1.2123580    -2.2878428
H          -0.5857599    -2.0187667    -2.0473448
H           0.4240733    -1.3415813    -3.3280479
H          -0.4057996    -0.2560789    -2.1799286
N           1.3670575    -0.4996283    -0.3126453
H           0.5368831     0.0538564    -0.1549096
C           2.2608443    -0.6432086     0.8486726
C           2.2226944    -2.0594510     1.4497704
H           2.8530141    -2.0843987     2.3407031
H           2.5953036    -2.7892384     0.7290493
H           1.1939820    -2.3189450     1.7250689
H           1.8332452     0.0382359     1.5949454
O           2.2475275    -2.1312906    -1.6442891
C           5.7167707     0.2925692     1.2379019
H           6.5905648     0.3381017     1.8742571
N           4.5477599    -0.2824644     1.6652346
C           3.6975776    -0.1782638     0.6563873
N           4.2709685     0.4690231    -0.4125672
C           3.7403092     0.7659310    -1.7391145
H           4.4871213     1.3539224    -2.2764246
H           2.8205454     1.3503849    -1.6688298
H           3.5452120    -0.1571218    -2.2883066
C           5.5718648     0.7613321    -0.0395475
H           6.2493786     1.2554086    -0.7203313
