22
243_C8H10N2O2_0-3-11-9 (-165,) energy =    -570.8360202
N           1.6081975    -1.3282870     0.2486688
C           1.3498197    -0.9002631     1.6207609
H           1.6067539    -1.6867213     2.3421139
C           2.4633005    -0.7107647    -0.6247301
H           0.2819279    -0.6731758     1.7314160
C           6.0760019     1.3759400     0.3695588
H           7.0020333     1.9172882     0.5280015
H           1.9129233     0.0005828     1.8589351
C           5.4285989     1.5687191    -0.9213975
N           4.2377419     0.8307344    -1.0483443
H           3.7769615     0.8512387    -1.9551029
C           3.6862935     0.0096157    -0.1060860
C           4.3356040    -0.1697938     1.0885983
H           3.9619914    -0.8614444     1.8306063
C           5.5550155     0.5378382     1.3112880
H           6.0755998     0.3952834     2.2552371
O           2.3201371    -0.7855925    -1.8463462
C           0.5783108    -2.1874716    -0.3298085
H          -0.3450797    -1.6271465    -0.5310521
H           0.3538551    -2.9942968     0.3755182
H           0.9413431    -2.6051095    -1.2677212
O           5.8304587     2.2731702    -1.8402664
22
243_C8H10N2O2_0-3-11-9 (-150,) energy =    -570.8362775
N           1.6338530    -1.3052193     0.2296850
C           1.3873641    -0.7951925     1.5734955
H           1.5706296    -1.5662654     2.3333517
C           2.5703365    -0.8343173    -0.6491752
H           0.3382624    -0.4830924     1.6530109
C           6.0464749     1.4523781     0.3842933
H           6.9371864     2.0460375     0.5570199
H           2.0181501     0.0666770     1.7834525
C           5.3587274     1.6758642    -0.8801625
N           4.2152787     0.8669858    -1.0300393
H           3.7541072     0.9010227    -1.9352419
C           3.7534280    -0.0530409    -0.1318378
C           4.4337476    -0.2506768     1.0410968
H           4.1106038    -1.0022506     1.7494557
C           5.6068382     0.5253879     1.2836785
H           6.1577482     0.3654402     2.2074208
O           2.5050265    -1.0376466    -1.8623558
C           0.5968552    -2.1876982    -0.2963420
H          -0.3344934    -1.6355111    -0.4815819
H           0.3940012    -2.9806467     0.4320197
H           0.9391296    -2.6219101    -1.2342172
O           5.6888960     2.4593422    -1.7628228
22
243_C8H10N2O2_0-3-11-9 (-135,) energy =    -570.8351264
N           1.6151928    -1.3028616     0.2302951
C           1.3725842    -0.7151215     1.5412446
H           1.4471805    -1.4717362     2.3335066
C           2.6316358    -0.9781539    -0.6246898
H           0.3592511    -0.2943796     1.5681363
C           5.9968891     1.4574997     0.4417075
H           6.8567226     2.0911361     0.6280693
H           2.0845340     0.0819512     1.7468806
C           5.2538295     1.7257043    -0.7808878
N           4.1534568     0.8593577    -0.9547145
H           3.6707120     0.9365207    -1.8449956
C           3.7861107    -0.1515365    -0.1123785
C           4.5101980    -0.3807910     1.0268300
H           4.2399087    -1.1880908     1.6961768
C           5.6431249     0.4469841     1.2880574
H           6.2327260     0.2611633     2.1826519
O           2.6437696    -1.3085303    -1.8102733
C           0.5624172    -2.1861575    -0.2599712
H          -0.3668851    -1.6259976    -0.4283543
H           0.3661456    -2.9714900     0.4794346
H           0.8843927    -2.6311398    -1.1999292
O           5.5012836     2.5884108    -1.6153172
22
243_C8H10N2O2_0-3-11-9 (-120,) energy =    -570.8332038
N           1.6302836    -1.2867802     0.1828174
C           1.3737500    -0.5994933     1.4407235
H           1.3101372    -1.3164261     2.2698783
C           2.7209966    -1.1073967    -0.6216531
H           0.4174557    -0.0640083     1.3801001
C           5.9901265     1.4574601     0.4601928
H           6.8208991     2.1254129     0.6579534
H           2.1632782     0.1176342     1.6579884
C           5.1809610     1.7659098    -0.7080646
N           4.1205898     0.8506265    -0.9001700
H           3.5948533     0.9810014    -1.7586636
C           3.8511683    -0.2380881    -0.1197066
C           4.6314848    -0.4988758     0.9735548
H           4.4253005    -1.3584044     1.5999776
C           5.7267103     0.3739668     1.2478104
H           6.3612005     0.1649903     2.1058700
O           2.8129031    -1.5790555    -1.7532375
C           0.5621648    -2.1641991    -0.2826328
H          -0.3501788    -1.5865678    -0.4799871
H           0.3374987    -2.9179343     0.4817982
H           0.8852589    -2.6515501    -1.2011098
O           5.3383333     2.6974881    -1.4886687
22
243_C8H10N2O2_0-3-11-9 (-105,) energy =    -570.8314427
N           1.6003304    -1.2699447     0.1570863
C           1.3253341    -0.4751866     1.3451516
H           1.1426825    -1.1271807     2.2093347
C           2.7492256    -1.2203462    -0.5820736
H           0.4299906     0.1400096     1.1871439
C           5.9310521     1.4731770     0.4708557
H           6.7333560     2.1748678     0.6690015
H           2.1652507     0.1787254     1.5748910
C           5.0327421     1.8154194    -0.6183761
N           4.0117360     0.8539746    -0.8135798
H           3.4138280     1.0368528    -1.6128207
C           3.8558531    -0.3035935    -0.1034384
C           4.7193818    -0.5943126     0.9164144
H           4.6005836    -1.5069596     1.4880154
C           5.7776808     0.3226108     1.1903131
H           6.4745773     0.0934082     1.9930751
O           2.9147384    -1.8423316    -1.6275123
C           0.5256870    -2.1533858    -0.2791784
H          -0.3705892    -1.5703031    -0.5263478
H           0.2704201    -2.8609046     0.5194720
H           0.8600326    -2.6976432    -1.1612034
O           5.0821103     2.8080036    -1.3358232
22
243_C8H10N2O2_0-3-11-9 (-90,) energy =    -570.8306361
N           1.5952497    -1.2166654     0.1355198
C           1.2987819    -0.3326757     1.2529979
H           1.0225859    -0.9190358     2.1391161
C           2.7980228    -1.2901269    -0.5114027
H           0.4574802     0.3272585     1.0048674
C           5.9157553     1.5025664     0.4896993
H           6.6953683     2.2305286     0.6834614
H           2.1647380     0.2800207     1.5009232
C           4.9212616     1.8754861    -0.5000416
N           3.9350238     0.8765516    -0.6926373
H           3.2534986     1.1043742    -1.4088648
C           3.8857396    -0.3350361    -0.0592081
C           4.8425378    -0.6549687     0.8632041
H           4.8159463    -1.6141002     1.3659462
C           5.8711030     0.2966519     1.1297956
H           6.6362277     0.0486545     1.8616994
O           3.0294644    -2.0565679    -1.4401853
C           0.5173378    -2.1045000    -0.2816517
H          -0.3605348    -1.5195713    -0.5832735
H           0.2269286    -2.7661735     0.5442711
H           0.8670029    -2.7020128    -1.1225028
O           4.8638341     2.9193719    -1.1403661
22
243_C8H10N2O2_0-3-11-9 (-75,) energy =    -570.8309614
N           1.6171563    -1.1780318     0.0838966
C           1.2853148    -0.2338800     1.1415780
H           0.9369467    -0.7720799     2.0331298
C           2.8708144    -1.3651698    -0.4353124
H           0.4837043     0.4414151     0.8164814
C           5.9252654     1.5305849     0.4629134
H           6.6832585     2.2849522     0.6410045
H           2.1548328     0.3615591     1.4174988
C           4.8426794     1.9048306    -0.4291419
N           3.8909147     0.8702086    -0.6036255
H           3.1377004     1.1069132    -1.2407569
C           3.9398389    -0.3717258    -0.0286891
C           4.9823875    -0.6939185     0.7939555
H           5.0406014    -1.6814886     1.2345829
C           5.9828806     0.2925399     1.0377775
H           6.8110135     0.0452476     1.6977058
O           3.1581641    -2.2677436    -1.2131105
C           0.5505970    -2.0877953    -0.3154707
H          -0.3220114    -1.5164573    -0.6542851
H           0.2459304    -2.7199055     0.5289607
H           0.9172060    -2.7192732    -1.1235941
O           4.6896502     2.9762312    -1.0054390
22
243_C8H10N2O2_0-3-11-9 (-60,) energy =    -570.8319236
N           1.5834681    -1.1586197     0.0322802
C           1.2067811    -0.1792238     1.0446294
H           0.8063604    -0.6882352     1.9319447
C           2.8752973    -1.4500070    -0.3302203
H           0.4304931     0.4927717     0.6584659
C           5.9019223     1.5107566     0.4306585
H           6.6494451     2.2812466     0.5821796
H           2.0652621     0.4173556     1.3503333
C           4.7487827     1.8833561    -0.3699667
N           3.8141331     0.8297095    -0.5110798
H           3.0101700     1.0630183    -1.0841394
C           3.9366049    -0.4301440     0.0147786
C           5.0480248    -0.7510143     0.7420648
H           5.1631391    -1.7542536     1.1324431
C           6.0355629     0.2553910     0.9530832
H           6.9155985     0.0098492     1.5426545
O           3.1938087    -2.4663179    -0.9364533
C           0.5335374    -2.0928895    -0.3571393
H          -0.3494950    -1.5344745    -0.6877157
H           0.2452315    -2.7345511     0.4866714
H           0.9033860    -2.7205386    -1.1666894
O           4.5298831     2.9679186    -0.8986900
22
243_C8H10N2O2_0-3-11-9 (-45,) energy =    -570.8326782
N           1.6094261    -1.1035016    -0.0097244
C           1.1647711    -0.1109408     0.9661174
H           0.7157557    -0.6106999     1.8356631
C           2.9253388    -1.4629105    -0.1994405
H           0.4081492     0.5479711     0.5237534
C           5.9242791     1.5560545     0.4157596
H           6.6627754     2.3404790     0.5372344
H           1.9976005     0.4976641     1.3155604
C           4.7107205     1.9229365    -0.2946597
N           3.7912264     0.8535937    -0.3994107
H           2.9520749     1.0756166    -0.9242015
C           3.9794507    -0.4195494     0.0750460
C           5.1464547    -0.7332051     0.7134487
H           5.3057273    -1.7452775     1.0625721
C           6.1236828     0.2896145     0.8879581
H           7.0482165     0.0483963     1.4068693
O           3.2623594    -2.5596747    -0.6302779
C           0.5924467    -2.0740902    -0.4024457
H          -0.3091422    -1.5386831    -0.7179345
H           0.3320038    -2.7410454     0.4312185
H           0.9733195    -2.6794717    -1.2239582
O           4.4368416     3.0154800    -0.7797739
22
243_C8H10N2O2_0-3-11-9 (-30,) energy =    -570.8324698
N           1.6064268    -1.0700970    -0.0375450
C           1.1031293    -0.0672058     0.9039432
H           0.5912378    -0.5600356     1.7422914
C           2.9261014    -1.4798799    -0.0715338
H           0.3846828     0.5961876     0.4084169
C           5.9536318     1.5381027     0.3916288
H           6.6984887     2.3203964     0.4853579
H           1.9145773     0.5346973     1.3108997
C           4.6872315     1.9245659    -0.2087850
N           3.7643287     0.8567743    -0.2819102
H           2.8976523     1.0876649    -0.7549606
C           3.9934448    -0.4348607     0.1204248
C           5.2061872    -0.7643521     0.6593875
H           5.3881404    -1.7872354     0.9621647
C           6.1924055     0.2551113     0.7954400
H           7.1550438    -0.0013371     1.2308967
O           3.2528808    -2.6289611    -0.3457402
C           0.6139328    -2.0666214    -0.4334236
H          -0.2928677    -1.5477959    -0.7597814
H           0.3587742    -2.7376083     0.3986256
H           1.0106527    -2.6686023    -1.2503701
O           4.3773526     3.0331348    -0.6320699
22
243_C8H10N2O2_0-3-11-9 (-15,) energy =    -570.8308519
N           1.7170760    -1.4347893     0.3114773
C           2.3800807    -2.2978432    -0.6734888
H           2.6423872    -3.2627964    -0.2240701
C           1.9512475    -0.0695314     0.3770947
H           3.2839162    -1.8317743    -1.0642215
C           6.0398650     1.2713997     0.3493473
H           7.0789345     1.5810778     0.3534541
H           1.7065095    -2.4874551    -1.5208341
C           5.7851828    -0.1273135     0.6541106
N           4.4129716    -0.4609471     0.6111864
H           4.2107576    -1.4060228     0.9163651
C           3.3791036     0.4102040     0.3719549
C           3.6600577     1.7225756     0.1064166
H           2.8418618     2.4029035    -0.0892466
C           5.0205008     2.1456185     0.1001713
H           5.2444952     3.1884606    -0.1104173
O           1.0526517     0.7385382     0.5820803
C           0.3509526    -1.8534529     0.6228410
H           0.3652146    -2.9164288     0.8827485
H          -0.3265503    -1.7040457    -0.2292798
H          -0.0247373    -1.2730059     1.4652063
O           6.6165032    -0.9851825     0.9320109
22
243_C8H10N2O2_0-3-11-9 (0,) energy =    -570.8277851
N           1.6450430    -1.2328061    -0.1132125
C           2.2982482    -2.4114247     0.4725295
H           3.2168809    -2.1407611     0.9925795
C           1.9742605     0.0618500     0.2684322
H           2.5263549    -3.1561490    -0.2997010
C           6.1095112     1.2752547     0.2166522
H           7.1561142     1.5575788     0.1952656
H           1.6313369    -2.8792772     1.2095601
C           5.7923168    -0.0567389    -0.2708515
N           4.4153194    -0.3642686    -0.1919022
H           4.1770228    -1.2402070    -0.6404682
C           3.4202986     0.4895586     0.2189387
C           3.7622490     1.7394709     0.6606809
H           2.9784613     2.3973278     1.0111262
C           5.1326770     2.1273403     0.6460197
H           5.3990561     3.1236086     0.9903612
O           1.1134275     0.9142496     0.4564809
C           0.2289424    -1.4516088    -0.4081013
H          -0.3729707    -1.5389920     0.5069393
H           0.1372595    -2.3773983    -0.9843783
H          -0.1557242    -0.6160213    -0.9927676
O           6.5781527    -0.8831920    -0.7225764
22
243_C8H10N2O2_0-3-11-9 (15,) energy =    -570.8308524
N           1.6612617    -1.2311960    -0.1135471
C           2.3271559    -2.3366464     0.5856340
H           3.2721950    -2.0170992     1.0233080
C           1.9633954     0.0979517     0.1430679
H           2.5166918    -3.1685141    -0.1029079
C           6.1133813     1.2301249     0.2469763
H           7.1657948     1.4908137     0.2545920
H           1.6877534    -2.7061119     1.3994884
C           5.7701802    -0.0383811    -0.3753008
N           4.3862384    -0.3190427    -0.3298224
H           4.1193281    -1.1500867    -0.8449108
C           3.4128598     0.5054357     0.1782407
C           3.7758814     1.6992867     0.7392515
H           3.0061782     2.3417045     1.1460723
C           5.1554144     2.0541715     0.7652523
H           5.4444674     3.0029448     1.2105520
O           1.0981982     0.9644584     0.1979032
C           0.2616979    -1.5073643    -0.4340117
H          -0.3630866    -1.5530128     0.4688147
H           0.2081597    -2.4703176    -0.9513617
H          -0.1261671    -0.7198786    -1.0797432
O           6.5398495    -0.8319709    -0.9063492
22
243_C8H10N2O2_0-3-11-9 (30,) energy =    -570.8324698
N           1.6249007    -1.2291690    -0.0816998
C           2.3208286    -2.2728166     0.6745969
H           3.2814083    -1.9177227     1.0454654
C           1.9290530     0.1146594     0.0289138
H           2.4886851    -3.1542500     0.0447540
C           6.0841454     1.1961508     0.2617347
H           7.1388830     1.4453545     0.2934490
H           1.7149934    -2.5804192     1.5383594
C           5.7300213    -0.0098595    -0.4688512
N           4.3421597    -0.2759902    -0.4518335
H           4.0653379    -1.0770558    -1.0085009
C           3.3801404     0.5015644     0.1419820
C           3.7510177     1.6412175     0.8003363
H           2.9880136     2.2594383     1.2549780
C           5.1345340     1.9776357     0.8564307
H           5.4339961     2.8788011     1.3858494
O           1.0783755     0.9926903    -0.0592332
C           0.2348494    -1.5492753    -0.3981096
H          -0.3965549    -1.5474276     0.5013126
H           0.1990325    -2.5441817    -0.8529228
H          -0.1579972    -0.8092000    -1.0946216
O           6.4921013    -0.7650881    -1.0629757
22
243_C8H10N2O2_0-3-11-9 (45,) energy =    -570.8326782
N           1.6001076    -1.2137970    -0.0493264
C           2.3195355    -2.2061247     0.7462055
H           3.2914691    -1.8285603     1.0606978
C           1.9318890     0.1219269    -0.0998731
H           2.4691505    -3.1250762     0.1670069
C           6.0870786     1.1589906     0.2811248
H           7.1429393     1.3981574     0.3395364
H           1.7419784    -2.4599985     1.6459051
C           5.7327206     0.0221100    -0.5519148
N           4.3424102    -0.2363150    -0.5657006
H           4.0671155    -1.0027267    -1.1704323
C           3.3822851     0.4877520     0.0940857
C           3.7527820     1.5675754     0.8454503
H           2.9918689     2.1550509     1.3428729
C           5.1381177     1.8897232     0.9384725
H           5.4390692     2.7399731     1.5456959
O           1.1174359     1.0031108    -0.3494258
C           0.2204282    -1.5681056    -0.3678698
H          -0.4100132    -1.5729624     0.5322279
H           0.2024648    -2.5679996    -0.8139028
H          -0.1836685    -0.8394896    -1.0694810
O           6.4934990    -0.6863707    -1.2025054
22
243_C8H10N2O2_0-3-11-9 (60,) energy =    -570.8319236
N           1.5434050    -1.2146220    -0.0018087
C           2.2887470    -2.1464616     0.8361057
H           3.2592533    -1.7353268     1.1107636
C           1.9063260     0.0889989    -0.2341822
H           2.4448091    -3.0959072     0.3093031
C           6.0382134     1.1599211     0.3007395
H           7.0892657     1.4098726     0.3913869
H           1.7291093    -2.3561146     1.7578482
C           5.7109663     0.0838522    -0.6182531
N           4.3233540    -0.1907138    -0.6711727
H           4.0710748    -0.9261336    -1.3228630
C           3.3463647     0.4635743     0.0332093
C           3.6907626     1.4876582     0.8697497
H           2.9190351     2.0274569     1.4037808
C           5.0703700     1.8220995     1.0018310
H           5.3516322     2.6270810     1.6765487
O           1.1362759     0.9371503    -0.6695196
C           0.1788175    -1.6155376    -0.3243456
H          -0.4428686    -1.6580882     0.5803986
H           0.1886085    -2.6087336    -0.7872926
H          -0.2489104    -0.8870845    -1.0117376
O           6.4884889    -0.5677340    -1.3071905
22
243_C8H10N2O2_0-3-11-9 (75,) energy =    -570.8309614
N           1.5481334    -1.1825847     0.0541363
C           2.2895909    -2.0642525     0.9447170
H           3.2619783    -1.6392554     1.1908502
C           1.9677959     0.0570333    -0.3502009
H           2.4412775    -3.0449068     0.4761028
C           6.0698608     1.1662930     0.3313428
H           7.1146323     1.4297882     0.4511872
H           1.7312233    -2.2152647     1.8781541
C           5.7711691     0.1619227    -0.6735644
N           4.3884069    -0.1324772    -0.7632358
H           4.1587280    -0.8176197    -1.4753625
C           3.3944364     0.4433481    -0.0177194
C           3.7117491     1.3965306     0.9086799
H           2.9295379     1.8731882     1.4864161
C           5.0835817     1.7477327     1.0768120
H           5.3436477     2.4998402     1.8178673
O           1.2648397     0.8444939    -0.9730479
C           0.1954482    -1.6085588    -0.2827626
H          -0.4261279    -1.6700174     0.6201856
H           0.2208483    -2.5980027    -0.7550163
H          -0.2370818    -0.8811887    -0.9683866
O           6.5660613    -0.4203378    -1.4033278
22
243_C8H10N2O2_0-3-11-9 (90,) energy =    -570.8306361
N           1.5085353    -1.1893213     0.1092230
C           2.2211921    -2.0186336     1.0696652
H           3.2041891    -1.6016195     1.2854422
C           1.9892668    -0.0329646    -0.4405989
H           2.3466038    -3.0358332     0.6766681
C           6.0433308     1.1683802     0.3612131
H           7.0775603     1.4614853     0.5016683
H           1.6569846    -2.0830721     2.0092534
C           5.7789078     0.2530483    -0.7341944
N           4.4080318    -0.0862735    -0.8490368
H           4.1995581    -0.6952131    -1.6333148
C           3.3962600     0.3825203    -0.0564727
C           3.6814670     1.2479538     0.9625213
H           2.8868726     1.6296474     1.5920613
C           5.0393539     1.6375565     1.1598684
H           5.2736822     2.3265166     1.9679678
O           1.3621193     0.6588654    -1.2353879
C           0.1674929    -1.6335818    -0.2491233
H          -0.4739871    -1.6662620     0.6406688
H           0.2053375    -2.6387964    -0.6871791
H          -0.2472926    -0.9331161    -0.9727387
O           6.5922437    -0.2251270    -1.5170381
22
243_C8H10N2O2_0-3-11-9 (105,) energy =    -570.8314424
N           1.4577514    -1.1521192     0.1401676
C           2.1046067    -1.9303145     1.1864820
H           3.1081717    -1.5554403     1.3817809
C           2.0145613    -0.0917338    -0.5189480
H           2.1720492    -2.9836254     0.8846995
C           6.0216890     1.1926593     0.3647148
H           7.0458213     1.5136092     0.5178618
H           1.5244647    -1.8789195     2.1171033
C           5.7710852     0.3887597    -0.8191083
N           4.4135268     0.0081485    -0.9495182
H           4.2017758    -0.4957444    -1.8044811
C           3.4005356     0.3509753    -0.0981261
C           3.6724546     1.1072675     1.0083984
H           2.8766592     1.3799607     1.6911190
C           5.0167560     1.5339809     1.2241221
H           5.2389448     2.1446364     2.0961140
O           1.4728604     0.4894759    -1.4548866
C           0.1201190    -1.5888466    -0.2416174
H          -0.5504419    -1.5562485     0.6261046
H           0.1490989    -2.6186334    -0.6197840
H          -0.2525978    -0.9254917    -1.0207243
O           6.5884745     0.0333993    -1.6605407
22
243_C8H10N2O2_0-3-11-9 (120,) energy =    -570.8332033
N           1.4701519    -1.1316686     0.1695350
C           2.0470594    -1.8509520     1.2966582
H           3.0794603    -1.5479404     1.4615555
C           2.0987343    -0.1763780    -0.5795771
H           2.0235378    -2.9300468     1.0967947
C           6.0392310     1.2573523     0.3425841
H           7.0477023     1.6240553     0.4972368
H           1.4731918    -1.6622790     2.2134869
C           5.7965156     0.5554673    -0.9076990
N           4.4611311     0.1095732    -1.0375497
H           4.2338622    -0.2988059    -1.9386487
C           3.4579597     0.3105582    -0.1317604
C           3.7208328     0.9741681     1.0355136
H           2.9330381     1.1365449     1.7612679
C           5.0446743     1.4595806     1.2556362
H           5.2583010     2.0016011     2.1738541
O           1.6378027     0.2767705    -1.6252945
C           0.1389819    -1.5667945    -0.2378416
H          -0.5551859    -1.4887123     0.6077184
H           0.1628332    -2.6119120    -0.5727046
H          -0.2002956    -0.9341377    -1.0564706
O           6.6079065     0.3359694    -1.7995774
22
243_C8H10N2O2_0-3-11-9 (135,) energy =    -570.8351261
N           1.4544421    -1.1425608     0.2142318
C           1.9578575    -1.8073216     1.4090351
H           3.0190191    -1.6080429     1.5459692
C           2.1659467    -0.3145486    -0.6090047
H           1.8157595    -2.8909652     1.3082914
C           6.0409220     1.2694618     0.3243794
H           7.0328910     1.6798408     0.4764415
H           1.4153073    -1.4755363     2.3041490
C           5.7920662     0.6525662    -0.9703152
N           4.4805959     0.1458352    -1.0929618
H           4.2269252    -0.1957187    -2.0152656
C           3.5009480     0.2144070    -0.1433888
C           3.7661827     0.8071640     1.0620439
H           2.9951989     0.8814215     1.8189299
C           5.0686259     1.3488082     1.2788930
H           5.2825156     1.8351571     2.2276716
O           1.7809691     0.0082000    -1.7325668
C           0.1230597    -1.5576719    -0.2146819
H          -0.5859954    -1.4341794     0.6123947
H           0.1245119    -2.6130774    -0.5177081
H          -0.1816903    -0.9451685    -1.0615492
O           6.5846097     0.5520978    -1.8995645
22
243_C8H10N2O2_0-3-11-9 (150,) energy =    -570.8362783
N           1.4531497    -1.1345868     0.2055074
C           1.8910387    -1.7737165     1.4411219
H           2.9652924    -1.6625142     1.5763473
C           2.2484013    -0.4394689    -0.6640171
H           1.6575054    -2.8451173     1.3950135
C           6.0337823     1.3367800     0.2826379
H           7.0027174     1.7995334     0.4330943
H           1.3750788    -1.3510843     2.3132273
C           5.7776504     0.7961353    -1.0456082
N           4.5010010     0.2122787    -1.1605471
H           4.2244823    -0.0874610    -2.0916740
C           3.5533771     0.1428545    -0.1788095
C           3.8194310     0.6782819     1.0540874
H           3.0694255     0.6713892     1.8341772
C           5.0918198     1.2886122     1.2684631
H           5.3052549     1.7246025     2.2414680
O           1.9360010    -0.2434088    -1.8392723
C           0.1327274    -1.5416600    -0.2652239
H          -0.5911732    -1.4300269     0.5496026
H           0.1356878    -2.5911317    -0.5897696
H          -0.1551664    -0.9152817    -1.1078570
O           6.5416453     0.8196791    -2.0035511
22
243_C8H10N2O2_0-3-11-9 (165,) energy =    -570.8360204
N           1.4331290    -1.1001001     0.2433300
C           1.7833844    -1.7174845     1.5194840
H           2.8609505    -1.7036681     1.6745260
C           2.3225396    -0.5429984    -0.6364934
H           1.4536072    -2.7640862     1.5148795
C           6.0043549     1.4264404     0.3437494
H           6.9457518     1.9416742     0.4986494
H           1.2922934    -1.2099155     2.3598409
C           5.7444723     0.9500445    -1.0084341
N           4.5041941     0.2969045    -1.1260848
H           4.2196230     0.0129481    -2.0606099
C           3.5957236     0.0913029    -0.1266638
C           3.8604624     0.5763013     1.1286130
H           3.1365234     0.4889049     1.9266476
C           5.0968564     1.2550152     1.3475885
H           5.3089285     1.6446515     2.3403486
O           2.0884210    -0.4636681    -1.8436824
C           0.1308364    -1.4910071    -0.2901561
H          -0.6210006    -1.3838804     0.4986199
H           0.1352220    -2.5343226    -0.6345218
H          -0.1215973    -0.8490951    -1.1328181
O           6.4787201     1.0810287    -1.9809601
22
243_C8H10N2O2_0-3-11-9 (180,) energy =    -570.8341311
N           1.4369249    -1.1099254     0.2400736
C           1.6927832    -1.6405294     1.5775992
H           2.7608953    -1.7737767     1.7456542
C           2.4025174    -0.6844466    -0.6340696
H           1.2169436    -2.6241847     1.6665113
C           6.0050255     1.4649302     0.2892265
H           6.9226976     2.0262549     0.4252664
H           1.2805508    -0.9909901     2.3607730
C           5.6885259     1.0612593    -1.0741276
N           4.4825066     0.3450147    -1.1620078
H           4.1689671     0.0694823    -2.0906002
C           3.6546754     0.0038402    -0.1293969
C           3.9695917     0.4260243     1.1383711
H           3.3128185     0.2486093     1.9762965
C           5.1750392     1.1663012     1.3291850
H           5.4257740     1.4992464     2.3335166
O           2.2286198    -0.7216318    -1.8540363
C           0.1543952    -1.5002239    -0.3423565
H          -0.6293809    -1.3497182     0.4065445
H           0.1537168    -2.5545120    -0.6512526
H          -0.0484551    -0.8847392    -1.2177544
O           6.3525850     1.2981597    -2.0768220
