22
205_C7H10N2O2S_0-6-10-11 (-165,) energy =    -930.8228253
C           0.4896763    -0.2253344    -1.0335546
H           0.4924523    -0.7756253    -1.9679532
C          -0.5890282     0.5638208    -0.6428190
H          -1.4616752     0.6572000    -1.2830039
C          -0.5311718     1.2274841     0.5845187
H          -1.3518412     1.8505739     0.9260165
C           1.5784503    -0.2985865    -0.1627782
C           0.6072537     1.0731818     1.3741563
H           0.6878424     1.5691415     2.3389540
N           1.6574722     0.3231138     1.0091724
S           3.0388070    -1.2641120    -0.6719158
N           3.9687630    -1.5120335     0.6875849
C           4.8249785    -0.4251819     1.1692786
H           5.1437461     0.1832337     0.3232434
H           5.7122935    -0.8728500     1.6309647
H           4.3074553     0.2039175     1.9036462
C           3.4554799    -2.4224620     1.7119091
H           2.8865984    -3.2215968     1.2355283
H           2.8251403    -1.9005947     2.4449885
H           4.3110023    -2.8688733     2.2302661
O           2.5230960    -2.5643227    -1.1104670
O           3.8144093    -0.4170209    -1.5818513
22
205_C7H10N2O2S_0-6-10-11 (-150,) energy =    -930.8234209
C           0.4386712    -0.3737205    -0.9377222
H           0.3964680    -1.0489201    -1.7846962
C          -0.6537171     0.3964329    -0.5426704
H          -1.5882336     0.3483411    -1.0945254
C          -0.5278291     1.2241853     0.5737870
H          -1.3557265     1.8379224     0.9148447
C           1.6073607    -0.2584119    -0.1846309
C           0.6895263     1.2476883     1.2552732
H           0.8236090     1.8735620     2.1349046
N           1.7517465     0.5210015     0.8832148
S           3.0908554    -1.1766251    -0.7115047
N           3.9652830    -1.5300203     0.6653429
C           4.8270062    -0.4952635     1.2440525
H           5.1980384     0.1489061     0.4475489
H           5.6799743    -0.9936829     1.7183177
H           4.2942858     0.1096281     1.9877152
C           3.3727697    -2.4701460     1.6166494
H           2.8145865    -3.2342199     1.0742939
H           2.7127914    -1.9671776     2.3384274
H           4.1856076    -2.9593742     2.1637693
O           2.5942320    -2.4410653    -1.2631436
O           3.9059900    -0.2675537    -1.5201662
22
205_C7H10N2O2S_0-6-10-11 (-135,) energy =    -930.8237280
C           0.4425782    -0.4896498    -0.8268378
H           0.3778144    -1.2715770    -1.5742650
C          -0.6640508     0.2585855    -0.4253244
H          -1.6394676     0.0783691    -0.8684296
C          -0.4975165     1.2370007     0.5545170
H          -1.3338317     1.8395511     0.8950763
C           1.6632328    -0.1982478    -0.2193621
C           0.7733897     1.4287321     1.1005753
H           0.9406522     2.1763245     1.8730616
N           1.8468658     0.7255729     0.7205526
S           3.1605611    -1.0941093    -0.7449298
N           3.9725071    -1.5406319     0.6475724
C           4.7998931    -0.5428789     1.3318788
H           5.2130693     0.1461018     0.5961506
H           5.6249230    -1.0699819     1.8241929
H           4.2281259     0.0216021     2.0791364
C           3.3281077    -2.5298257     1.5107067
H           2.8015043    -3.2616694     0.8972179
H           2.6279841    -2.0685531     2.2238486
H           4.1090726    -3.0497090     2.0755365
O           2.6785404    -2.3225430    -1.3846104
O           4.0185403    -0.1492209    -1.4603319
22
205_C7H10N2O2S_0-6-10-11 (-120,) energy =    -930.8235438
C           0.4525576    -0.5668517    -0.6545639
H           0.3801434    -1.4393619    -1.2927953
C          -0.6665807     0.1533031    -0.2345886
H          -1.6627270    -0.1499637    -0.5444809
C          -0.4844193     1.2647181     0.5871710
H          -1.3287151     1.8519512     0.9348249
C           1.6994540    -0.1127701    -0.2271590
C           0.8149076     1.6127977     0.9645583
H           0.9955631     2.4681257     1.6122262
N           1.8986832     0.9376003     0.5660052
S           3.2067556    -0.9928036    -0.7516217
N           3.9653868    -1.5207559     0.6479404
C           4.7193145    -0.5414932     1.4363398
H           5.1751775     0.1854805     0.7652049
H           5.5123136    -1.0777617     1.9691756
H           4.0846967    -0.0167906     2.1629805
C           3.2930943    -2.5679683     1.4167175
H           2.8302736    -3.2807478     0.7337345
H           2.5333484    -2.1643477     2.1041986
H           4.0502780    -3.0940775     2.0072725
O           2.7393103    -2.1888252    -1.4599078
O           4.0981105    -0.0239909    -1.3862696
22
205_C7H10N2O2S_0-6-10-11 (-105,) energy =    -930.8227606
C           0.4993758    -0.6420033    -0.4892345
H           0.4347803    -1.5876709    -1.0140644
C          -0.6287038     0.0495720    -0.0458656
H          -1.6218924    -0.3587601    -0.2105744
C          -0.4589080     1.2694631     0.6073690
H          -1.3103625     1.8398804     0.9654324
C           1.7416298    -0.0511053    -0.2580055
C           0.8386602     1.7499954     0.8006735
H           1.0119054     2.6931598     1.3146879
N           1.9304783     1.1014805     0.3805767
S           3.2594299    -0.9208878    -0.7720021
N           3.9520770    -1.5252792     0.6369317
C           4.6218328    -0.5673728     1.5217982
H           5.1238244     0.1888866     0.9192547
H           5.3726213    -1.1137151     2.1027578
H           3.9223187    -0.0755837     2.2127937
C           3.2461299    -2.6155806     1.3100269
H           2.8566317    -3.3103523     0.5657973
H           2.4242509    -2.2577559     1.9505072
H           3.9677433    -3.1471783     1.9387670
O           2.8082522    -2.0826736    -1.5450843
O           4.1879670     0.0616160    -1.3231826
22
205_C7H10N2O2S_0-6-10-11 (-90,) energy =    -930.8212290
C           0.5736797    -0.6909148    -0.3155889
H           0.5265210    -1.6990750    -0.7099853
C          -0.5566060    -0.0167209     0.1464823
H          -1.5265495    -0.5060561     0.1414486
C          -0.4199269     1.2922005     0.6080457
H          -1.2754255     1.8524678     0.9724879
C           1.7849383     0.0040272    -0.2972535
C           0.8490717     1.8753064     0.5984129
H           0.9986561     2.8911306     0.9583177
N           1.9443217     1.2413533     0.1631625
S           3.3122807    -0.8606897    -0.7986068
N           3.9387165    -1.5410242     0.6117478
C           4.5207193    -0.6135799     1.5862409
H           5.0461745     0.1816246     1.0578915
H           5.2416728    -1.1695506     2.1947709
H           3.7634537    -0.1708216     2.2506667
C           3.2184471    -2.6791052     1.1813958
H           2.9010780    -3.3453762     0.3793469
H           2.3444248    -2.3742550     1.7795861
H           3.9099895    -3.2224704     1.8334227
O           2.8761786    -1.9843969    -1.6340189
O           4.2755920     0.1295693    -1.2660926
22
205_C7H10N2O2S_0-6-10-11 (-75,) energy =    -930.8191286
C           0.6294876     0.4126140     1.1343766
H           1.1207248     0.6272648     2.0761726
C          -0.3455526     1.2494302     0.5970886
H          -0.6328621     2.1606699     1.1139420
C          -0.9457689     0.8957978    -0.6130466
H          -1.7111963     1.5201310    -1.0635541
C           0.9395784    -0.7453413     0.4185975
C          -0.5408803    -0.2814709    -1.2419882
H          -0.9795304    -0.5884217    -2.1889009
N           0.3974854    -1.0961324    -0.7392157
S           2.2180590    -1.8609110     1.0912289
N           3.6201552    -0.9625065     0.7191615
C           4.0375608    -1.0890811    -0.6841398
H           3.1788070    -0.9452786    -1.3440822
H           4.4867605    -2.0672918    -0.9030815
H           4.7686557    -0.3007309    -0.8892447
C           4.7198466    -1.1217643     1.6811406
H           4.3320953    -1.0274755     2.6952565
H           5.4390165    -0.3176764     1.4953271
H           5.2361605    -2.0877958     1.5790408
O           2.0879475    -1.8219913     2.5537246
O           2.1756145    -3.1303130     0.3639995
22
205_C7H10N2O2S_0-6-10-11 (-60,) energy =    -930.8179785
C           0.7972487     0.4741966     0.9632163
H           1.4397062     0.7689491     1.7846079
C          -0.2061271     1.3062590     0.4731385
H          -0.3675242     2.2878916     0.9094769
C          -0.9988707     0.8562809    -0.5848157
H          -1.7922721     1.4737794    -0.9945834
C           0.9449693    -0.7734674     0.3531870
C          -0.7520978    -0.4105836    -1.1132754
H          -1.3460203    -0.7960098    -1.9390661
N           0.2124563    -1.2211547    -0.6556416
S           2.2137395    -1.9185543     0.9987705
N           3.6114693    -0.9651743     0.7618413
C           4.0717750    -0.9507832    -0.6328656
H           3.2358552    -0.7273704    -1.3007974
H           4.5197483    -1.9055462    -0.9398258
H           4.8141323    -0.1528603    -0.7335355
C           4.6851457    -1.2166367     1.7341441
H           4.2655875    -1.2369264     2.7398655
H           5.3991866    -0.3902598     1.6594461
H           5.2165065    -2.1609466     1.5441870
O           2.0235415    -2.0043473     2.4521085
O           2.2339702    -3.1250554     0.1704944
22
205_C7H10N2O2S_0-6-10-11 (-45,) energy =    -930.8174822
C           0.9240783     0.5356831     0.7631938
H           1.6967855     0.8842710     1.4377530
C          -0.1103986     1.3628901     0.3301325
H          -0.1678114     2.3933715     0.6692369
C          -1.0682378     0.8450894    -0.5428491
H          -1.8898503     1.4570021    -0.9022242
C           0.9363555    -0.7748967     0.2814781
C          -0.9515497    -0.4844226    -0.9503319
H          -1.6780681    -0.9262347    -1.6287947
N           0.0393818    -1.2900352    -0.5475184
S           2.2000698    -1.9506037     0.8816371
N           3.5922963    -0.9636132     0.7944138
C           4.1310410    -0.8418385    -0.5663843
H           3.3323035    -0.5748516    -1.2632582
H           4.6067503    -1.7677025    -0.9166243
H           4.8683186    -0.0329087    -0.5652120
C           4.6134381    -1.2713155     1.8067263
H           4.1377603    -1.3718709     2.7820349
H           5.3163848    -0.4325945     1.8339731
H           5.1706118    -2.1920063     1.5791949
O           1.9507077    -2.1828717     2.3092419
O           2.2831458    -3.0718757    -0.0560161
22
205_C7H10N2O2S_0-6-10-11 (-30,) energy =    -930.8172033
C           1.0204966     0.5680668     0.5786781
H           1.8864171     0.9453226     1.1085413
C          -0.0385586     1.3925365     0.1982679
H          -0.0175448     2.4533018     0.4319546
C          -1.1199398     0.8338575    -0.4819295
H          -1.9634063     1.4418988    -0.7940454
C           0.9288476    -0.7823823     0.2396507
C          -1.0998287    -0.5350751    -0.7572879
H          -1.9253308    -1.0100110    -1.2830480
N          -0.0892329    -1.3375695    -0.4064090
S           2.2051543    -1.9792817     0.7625137
N           3.5840513    -0.9721739     0.8130348
C           4.2100263    -0.7728581    -0.5006388
H           3.4555959    -0.4829010    -1.2362206
H           4.7247470    -1.6723847    -0.8634837
H           4.9311476     0.0454788    -0.4087960
C           4.5403621    -1.3023972     1.8799108
H           4.0026653    -1.4565129     2.8148507
H           5.2200297    -0.4514369     1.9910836
H           5.1332912    -2.2003658     1.6525213
O           1.9206898    -2.3655509     2.1488712
O           2.3397110    -2.9951714    -0.2839249
22
205_C7H10N2O2S_0-6-10-11 (-15,) energy =    -930.8168228
C           1.0922711     0.5801226     0.4102899
H           2.0204803     0.9745223     0.8041318
C           0.0114245     1.4010033     0.0835494
H           0.0842561     2.4773732     0.2119806
C          -1.1570406     0.8196782    -0.4049177
H          -2.0191929     1.4241757    -0.6690715
C           0.9301318    -0.7911014     0.2156088
C          -1.2007654    -0.5693291    -0.5494662
H          -2.0950943    -1.0631040    -0.9234533
N          -0.1722921    -1.3681300    -0.2502760
S           2.2331204    -1.9987829     0.6322951
N           3.5932197    -0.9829065     0.8117515
C           4.3157366    -0.7331746    -0.4426781
H           3.6166008    -0.4370331    -1.2280239
H           4.8760162    -1.6116591    -0.7887725
H           5.0112268     0.0945117    -0.2706016
C           4.4672549    -1.3104892     1.9472089
H           3.8616509    -1.4935353     2.8337880
H           5.1164073    -0.4471751     2.1258283
H           5.0967292    -2.1913857     1.7548534
O           1.9332543    -2.5458838     1.9589853
O           2.4088564    -2.8840249    -0.5221556
22
205_C7H10N2O2S_0-6-10-11 (0,) energy =    -930.8162190
C           1.1026211     0.5979653     0.3102127
H           2.0858534     1.0063431     0.5063021
C          -0.0390167     1.3998797     0.2491720
H           0.0370575     2.4712167     0.4129877
C          -1.2694663     0.8072307    -0.0257690
H          -2.1796835     1.3961158    -0.0825615
C           0.9321870    -0.7675379     0.0894982
C          -1.3125131    -0.5745860    -0.2300742
H          -2.2527279    -1.0765005    -0.4483849
N          -0.2312046    -1.3563379    -0.1696022
S           2.3115837    -1.9586033     0.1552713
N           3.6412408    -0.9547753     0.5211034
C           4.7794843    -1.0467790    -0.4032867
H           4.4223825    -1.0528635    -1.4320696
H           5.3872320    -1.9471549    -0.2347335
H           5.4076585    -0.1637998    -0.2462680
C           4.0223309    -0.9306888     1.9396877
H           3.1387888    -0.8047606     2.5673739
H           4.6853034    -0.0729914     2.0936266
H           4.5415958    -1.8463934     2.2523825
O           2.0572708    -2.8591219     1.2834209
O           2.5146766    -2.4800717    -1.1987026
22
205_C7H10N2O2S_0-6-10-11 (15,) energy =    -930.8168226
C           1.1368538     0.6348657     0.1569962
H           2.1327674     1.0578723     0.1948039
C          -0.0121517     1.4273695     0.1861718
H           0.0708837     2.5082503     0.2580726
C          -1.2606118     0.8122154     0.1192815
H          -2.1769183     1.3940522     0.1379270
C           0.9550360    -0.7447533     0.0683741
C          -1.3135058    -0.5809354     0.0256894
H          -2.2679083    -1.0998616    -0.0323087
N          -0.2241193    -1.3541606     0.0058771
S           2.3549212    -1.9116888    -0.0211654
N           3.6562811    -0.9190052     0.4656991
C           4.8943108    -1.0968207    -0.3066437
H           4.6605483    -1.1282065    -1.3699654
H           5.4353428    -2.0137175    -0.0312371
H           5.5382350    -0.2348570    -0.1041794
C           3.8629061    -0.8847922     1.9197982
H           2.9164388    -0.6945166     2.4308844
H           4.5467437    -0.0594438     2.1424115
H           4.2857526    -1.8208362     2.3076976
O           2.1225844    -2.9672878     0.9681563
O           2.5771661    -2.2413066    -1.4323883
22
205_C7H10N2O2S_0-6-10-11 (30,) energy =    -930.8172030
C           1.1108991     0.6244014    -0.0242054
H           2.0964426     1.0590943    -0.1365602
C          -0.0417930     1.4050253     0.0641398
H           0.0255140     2.4884781     0.0204560
C          -1.2765650     0.7732748     0.2071557
H          -2.1961037     1.3458921     0.2785895
C           0.9491161    -0.7598487     0.0462298
C          -1.3108355    -0.6219097     0.2566434
H          -2.2540166    -1.1533115     0.3637099
N          -0.2145201    -1.3840841     0.1810402
S           2.3691796    -1.8913423    -0.1502059
N           3.6351388    -0.9223596     0.4624483
C           4.9260491    -1.1043076    -0.2172517
H           4.7724179    -1.1004718    -1.2958414
H           5.4276154    -2.0392865     0.0723448
H           5.5678695    -0.2613501     0.0583556
C           3.7304601    -0.9430180     1.9278921
H           2.7496814    -0.7531298     2.3709789
H           4.4057065    -0.1371288     2.2323807
H           4.1087632    -1.8994359     2.3124996
O           2.1473998    -3.0600652     0.7042730
O           2.6241259    -2.0512576    -1.5860058
22
205_C7H10N2O2S_0-6-10-11 (45,) energy =    -930.8174822
C           1.0961268     0.6169103    -0.2444124
H           2.0482848     1.0494807    -0.5270841
C          -0.0550924     1.3886348    -0.0992363
H          -0.0230044     2.4604251    -0.2736355
C          -1.2455498     0.7618315     0.2717281
H          -2.1637565     1.3279724     0.3942589
C           0.9803405    -0.7527416     0.0014498
C          -1.2363595    -0.6172290     0.4847748
H          -2.1434193    -1.1437159     0.7735543
N          -0.1375012    -1.3714175     0.3547501
S           2.4187747    -1.8475634    -0.2663253
N           3.6451716    -0.9166743     0.4751807
C           4.9762107    -1.0850433    -0.1266839
H           4.8937978    -1.0217225    -1.2114886
H           5.4454324    -2.0419673     0.1453666
H           5.6089297    -0.2679785     0.2344256
C           3.6447826    -1.0209600     1.9401178
H           2.6373602    -0.8488340     2.3278925
H           4.3008737    -0.2380904     2.3333206
H           3.9938614    -2.0003610     2.2938215
O           2.1953520    -3.1029867     0.4529351
O           2.7168671    -1.8486563    -1.7034505
22
205_C7H10N2O2S_0-6-10-11 (60,) energy =    -930.8179787
C           1.0352350     0.6026526    -0.4863548
H           1.9224147     1.0062905    -0.9599237
C          -0.1055560     1.3727523    -0.2747202
H          -0.1307679     2.4140779    -0.5830365
C          -1.2132054     0.7827868     0.3377298
H          -2.1219159     1.3485899     0.5187857
C           0.9932407    -0.7282285    -0.0648376
C          -1.1327010    -0.5565711     0.7183737
H          -1.9724186    -1.0517292     1.2010206
N          -0.0404919    -1.3093175     0.5256026
S           2.4486603    -1.7889696    -0.3711848
N           3.6301590    -0.9191084     0.5035952
C           4.9926395    -1.0452098    -0.0339174
H           4.9709169    -0.8992580    -1.1138161
H           5.4482699    -2.0209641     0.1907643
H           5.6024498    -0.2590251     0.4225732
C           3.5479259    -1.1308287     1.9547230
H           2.5177788    -0.9973991     2.2949377
H           4.1707036    -0.3733699     2.4408773
H           3.8892077    -2.1305577     2.2557074
O           2.2074446    -3.1108142     0.2090718
O           2.8042138    -1.6404984    -1.7879755
22
205_C7H10N2O2S_0-6-10-11 (75,) energy =    -930.8191287
C           0.9452057     0.5707722    -0.7145618
H           1.7392157     0.9165742    -1.3659946
C          -0.1867049     1.3380233    -0.4503326
H          -0.2958548     2.3252681    -0.8901701
C          -1.1754833     0.8159603     0.3860075
H          -2.0735220     1.3814469     0.6148958
C           1.0113758    -0.6915143    -0.1217061
C          -0.9886999    -0.4543955     0.9307371
H          -1.7329328    -0.8931445     1.5917055
N           0.0956577    -1.2042988     0.6882450
S           2.4840825    -1.7209406    -0.4423170
N           3.6220839    -0.9262019     0.5502916
C           5.0022288    -0.9642645     0.0461903
H           5.0096560    -0.7053430    -1.0123771
H           5.4764429    -1.9475538     0.1820805
H           5.5768198    -0.2171173     0.6028594
C           3.5010740    -1.2787648     1.9718270
H           2.4564841    -1.2142469     2.2854180
H           4.0819548    -0.5520126     2.5484169
H           3.8689245    -2.2911233     2.1872765
O           2.2216598    -3.0863503     0.0146459
O           2.8959683    -1.4523112    -1.8263878
22
205_C7H10N2O2S_0-6-10-11 (90,) energy =    -930.8212293
C           1.3050560     0.4863181    -0.7382637
H           1.9897943     0.6601005    -1.5599072
C           0.3318614     1.4148115    -0.3688951
H           0.2516203     2.3625018    -0.8939712
C          -0.5349568     1.1035071     0.6783389
H          -1.3081510     1.7970807     0.9941425
C           1.3403644    -0.7183295    -0.0325788
C          -0.3879867    -0.1258432     1.3245108
H          -1.0388027    -0.4020683     2.1515166
N           0.5428679    -1.0258198     0.9861669
S           2.6538564    -1.9290494    -0.4077199
N           3.9359728    -1.5484348     0.6197475
C           4.6789888    -0.3216415     0.3345068
H           4.8302198    -0.2313454    -0.7410934
H           5.6575345    -0.4007678     0.8190752
H           4.1745127     0.5807974     0.7163339
C           3.7528504    -1.8566539     2.0409955
H           3.2061237    -2.7942360     2.1390728
H           3.2128936    -1.0623196     2.5780658
H           4.7433810    -1.9766044     2.4922761
O           2.1816705    -3.2580208    -0.0362578
O           3.1109610    -1.6111988    -1.7644884
22
205_C7H10N2O2S_0-6-10-11 (105,) energy =    -930.8227606
C           1.1772354     0.4484207    -0.8805095
H           1.7638646     0.5541476    -1.7852711
C           0.1853036     1.3604486    -0.5176209
H          -0.0199136     2.2248562    -1.1429007
C          -0.5357378     1.1420029     0.6554320
H          -1.3171182     1.8260550     0.9717786
C           1.3757593    -0.6464468    -0.0392744
C          -0.2308305     0.0192406     1.4290019
H          -0.7649161    -0.1797053     2.3558022
N           0.7148410    -0.8658429     1.0951694
S           2.6850682    -1.8536077    -0.4303009
N           3.9374053    -1.5523286     0.6518650
C           4.6791708    -0.3032818     0.4790986
H           4.8354606    -0.1175319    -0.5836169
H           5.6559018    -0.4219147     0.9592634
H           4.1695991     0.5598947     0.9362677
C           3.7458295    -1.9844524     2.0395676
H           3.1974171    -2.9257819     2.0508384
H           3.2019952    -1.2402072     2.6387287
H           4.7349449    -2.1449902     2.4817954
O           2.1774239    -3.1917587    -0.1423081
O           3.1842493    -1.4810888    -1.7580835
22
205_C7H10N2O2S_0-6-10-11 (120,) energy =    -930.8235439
C           1.0437270     0.3835062    -0.9952798
H           1.5336216     0.4174681    -1.9610572
C           0.0259554     1.2677347    -0.6351418
H          -0.3091418     2.0312477    -1.3315993
C          -0.5505726     1.1545943     0.6292267
H          -1.3452444     1.8223872     0.9471756
C           1.4141043    -0.5773572    -0.0555473
C          -0.0821928     0.1609096     1.4924076
H          -0.5010504     0.0477019     2.4901289
N           0.8876570    -0.6986711     1.1610978
S           2.7234050    -1.7777354    -0.4632622
N           3.9430668    -1.5595072     0.6671693
C           4.6945768    -0.3061578     0.6040528
H           4.8474678    -0.0254373    -0.4383221
H           5.6731151    -0.4739797     1.0657605
H           4.1922135     0.5140603     1.1403655
C           3.7470486    -2.1133680     2.0102043
H           3.1795309    -3.0403540     1.9370894
H           3.2188742    -1.4156614     2.6737560
H           4.7345471    -2.3346778     2.4299838
O           2.1837707    -3.1209146    -0.2618805
O           3.2617152    -1.3499467    -1.7585748
22
205_C7H10N2O2S_0-6-10-11 (135,) energy =    -930.8237281
C           0.9241244     0.2859820    -1.1045687
H           1.3124224     0.2336893    -2.1148985
C          -0.1164764     1.1414826    -0.7425575
H          -0.5811313     1.7850222    -1.4843007
C          -0.5462466     1.1583161     0.5841536
H          -1.3521161     1.8104614     0.9062915
C           1.4675707    -0.5155583    -0.1016081
C           0.0857292     0.3183025     1.5034870
H          -0.2157274     0.3098091     2.5487868
N           1.0792828    -0.5144591     1.1711368
S           2.7841498    -1.7036353    -0.5206761
N           3.9614237    -1.5592168     0.6586449
C           4.7091628    -0.3034103     0.7087013
H           4.8659033     0.0687613    -0.3043027
H           5.6870376    -0.5063980     1.1579326
H           4.1986026     0.4625534     1.3121991
C           3.7557105    -2.2282752     1.9463168
H           3.1756005    -3.1369661     1.7899319
H           3.2354959    -1.5830753     2.6653874
H           4.7392484    -2.5015870     2.3449065
O           2.2229482    -3.0500912    -0.4071227
O           3.3622656    -1.2212026    -1.7790743
22
205_C7H10N2O2S_0-6-10-11 (150,) energy =    -930.8234209
C           0.7923729     0.1974051    -1.1408256
H           1.0736359     0.0431031    -2.1762619
C          -0.2594462     1.0332007    -0.7699162
H          -0.8437739     1.5493487    -1.5264383
C          -0.5446061     1.1987128     0.5861344
H          -1.3540258     1.8424740     0.9160103
C           1.4967839    -0.4356459    -0.1164608
C           0.2377016     0.5209297     1.5218212
H           0.0519659     0.6308748     2.5880610
N           1.2459460    -0.2930965     1.1817506
S           2.8238930    -1.6067821    -0.5510059
N           3.9510217    -1.5509045     0.6784699
C           4.7097260    -0.3107381     0.8406454
H           4.8991082     0.1312577    -0.1382661
H           5.6726382    -0.5577279     1.3002055
H           4.1865356     0.4130556     1.4824440
C           3.7003191    -2.3105170     1.9065735
H           3.1202860    -3.2006901     1.6653261
H           3.1629623    -1.7129279     2.6527953
H           4.6688527    -2.6224108     2.3134782
O           2.2430006    -2.9511410    -0.5446606
O           3.4506572    -1.0590419    -1.7580367
22
205_C7H10N2O2S_0-6-10-11 (165,) energy =    -930.8228253
C           0.6690102     0.0619184    -1.1361368
H           0.8443952    -0.2105631    -2.1709884
C          -0.3933036     0.8779545    -0.7558080
H          -1.0894460     1.2556375    -1.4993204
C          -0.5450016     1.2046193     0.5934175
H          -1.3586907     1.8392684     0.9303026
C           1.5234773    -0.3887627    -0.1282634
C           0.3762585     0.7005189     1.5102106
H           0.2953510     0.9369250     2.5689231
N           1.4001459    -0.0924249     1.1613998
S           2.8831729    -1.5172235    -0.5775495
N           3.9464756    -1.5482038     0.7041789
C           4.7398726    -0.3465666     0.9651263
H           4.9721786     0.1474422     0.0210849
H           5.6804428    -0.6548234     1.4343839
H           4.2179034     0.3515558     1.6338606
C           3.6225891    -2.3675839     1.8746758
H           3.0324271    -3.2276702     1.5592586
H           3.0694566    -1.7957558     2.6296595
H           4.5632125    -2.7289192     2.3054346
O           2.3037027    -2.8579058    -0.6956497
O           3.5630077    -0.8887850    -1.7140827
22
205_C7H10N2O2S_0-6-10-11 (180,) energy =    -930.8224447
C           0.5596477    -0.0794895    -1.1095829
H           0.6348849    -0.4886978    -2.1112087
C          -0.5086448     0.7232921    -0.7202069
H          -1.3021693     0.9604936    -1.4231361
C          -0.5422385     1.2169763     0.5861966
H          -1.3579144     1.8461804     0.9284062
C           1.5443655    -0.3441505    -0.1551105
C           0.4982682     0.8856613     1.4516588
H           0.5086229     1.2502715     2.4764431
N           1.5350631     0.1132739     1.0921082
S           2.9585936    -1.3920104    -0.6330106
N           3.9522363    -1.5273288     0.6948377
C           4.7857096    -0.3820218     1.0651304
H           5.0543525     0.1745916     0.1671531
H           5.7043757    -0.7643884     1.5237947
H           4.2737479     0.2802138     1.7749428
C           3.5354586    -2.3987757     1.7949501
H           2.9450748    -3.2247538     1.3979379
H           2.9528237    -1.8523411     2.5475745
H           4.4366356    -2.8105436     2.2628026
O           2.4087393    -2.7211689    -0.9139752
O           3.6911641    -0.6489070    -1.6621457
