22
205_C7H10N2O2S_6-10-11-16 (-165,) energy =    -930.8197771
C           0.4710976    -0.2871692    -1.1935930
H           0.8020161    -0.9303615    -2.0000036
C          -0.3953194     0.7872450    -1.3960859
H          -0.7657218     1.0131677    -2.3919503
C          -0.7780846     1.5604327    -0.3009732
H          -1.4526484     2.4033337    -0.4149388
C           0.9003664    -0.5214037     0.1122462
C          -0.2767790     1.2298896     0.9597650
H          -0.5498497     1.8105646     1.8380996
N           0.5486269     0.1982454     1.1724136
S           1.9573599    -1.9781860     0.4083583
N           3.4965368    -1.2726819     0.6760481
C           3.5863193    -0.5325084     1.9507140
H           2.7790040     0.1958598     2.0227545
H           4.5448443    -0.0043255     1.9509424
H           3.5395249    -1.1992562     2.8226888
C           4.5625844    -2.2910925     0.5834114
H           4.4736877    -2.8281292    -0.3615565
H           4.5333953    -3.0060844     1.4180379
H           5.5198603    -1.7619581     0.6022091
O           1.4598666    -2.6609935     1.6088527
O           2.0549970    -2.7011861    -0.8656724
22
205_C7H10N2O2S_6-10-11-16 (-150,) energy =    -930.8216063
C           0.4064208    -0.3720941    -1.1743315
H           0.6772232    -1.0919174    -1.9371484
C          -0.4205370     0.7217344    -1.4310589
H          -0.8242571     0.8815536    -2.4268315
C          -0.7196979     1.6010535    -0.3914307
H          -1.3605250     2.4628717    -0.5496862
C           0.8816695    -0.5176136     0.1280613
C          -0.1786927     1.3522207     0.8716739
H          -0.3868693     2.0161134     1.7078650
N           0.6076026     0.3029439     1.1374625
S           1.9065120    -1.9742064     0.5098063
N           3.4255430    -1.2642878     0.8155837
C           3.5466045    -0.6734055     2.1603513
H           2.6848747    -0.0370738     2.3633653
H           4.4526172    -0.0591546     2.1675116
H           3.6214775    -1.4386548     2.9448027
C           4.5598255    -2.1386022     0.4731715
H           4.4204682    -2.5449046    -0.5283162
H           4.6871328    -2.9646979     1.1879684
H           5.4625244    -1.5200760     0.4860101
O           1.3578230    -2.6117862     1.7118458
O           2.0421595    -2.7338857    -0.7397348
22
205_C7H10N2O2S_6-10-11-16 (-135,) energy =    -930.8219746
C           0.1815720     0.8547418    -0.2624032
H           0.6586495     1.7608712    -0.6158661
C          -1.1841949     0.7818816     0.0147320
H          -1.8184757     1.6529788    -0.1232916
C          -1.7179915    -0.4229886     0.4689023
H          -2.7752387    -0.5210856     0.6948177
C           0.9311133    -0.3035039    -0.0679918
C          -0.8624315    -1.5157115     0.6289325
H          -1.2410065    -2.4721311     0.9831511
N           0.4465043    -1.4658412     0.3599021
S           2.7058971    -0.2740027    -0.4646791
N           3.4116022    -0.5758428     1.0455522
C           3.5818285    -1.9971084     1.3801572
H           2.6660443    -2.5405873     1.1472340
H           3.7654678    -2.0627328     2.4574830
H           4.4232453    -2.4542602     0.8422025
C           4.5503866     0.2782998     1.4031801
H           4.3359640     1.3114479     1.1326054
H           5.4836947    -0.0346408     0.9122842
H           4.6851150     0.2117838     2.4876163
O           2.9754512    -1.3745351    -1.3947738
O           3.0289082     1.1128555    -0.8241846
22
205_C7H10N2O2S_6-10-11-16 (-120,) energy =    -930.8215347
C           0.1987684     0.8596911    -0.3327200
H           0.6763351     1.7344612    -0.7575235
C          -1.1606926     0.8219097    -0.0189541
H          -1.7895277     1.6890887    -0.2001603
C          -1.6953743    -0.3433247     0.5280445
H          -2.7476886    -0.4126333     0.7855144
C           0.9407902    -0.2910691    -0.0758770
C          -0.8470746    -1.4329846     0.7415820
H          -1.2277107    -2.3587283     1.1679717
N           0.4558759    -1.4156117     0.4424896
S           2.7084871    -0.3209398    -0.5016978
N           3.4436518    -0.6573347     0.9721629
C           3.7283380    -2.0642977     1.2685891
H           2.9086293    -2.6890779     0.9157813
H           3.8049731    -2.1691473     2.3560832
H           4.6668570    -2.4032599     0.8089057
C           4.3947558     0.3174126     1.5082021
H           4.0841227     1.3262255     1.2393862
H           5.4151286     0.1513448     1.1328171
H           4.4022299     0.2223645     2.5994846
O           2.9198334    -1.4390171    -1.4240564
O           3.0638198     1.0545190    -0.8749372
22
205_C7H10N2O2S_6-10-11-16 (-105,) energy =    -930.8212243
C           0.1760685     0.8301902    -0.3620374
H           0.6185504     1.6802354    -0.8676318
C          -1.1647310     0.7995669     0.0241864
H          -1.8141467     1.6459022    -0.1814984
C          -1.6539099    -0.3312697     0.6761916
H          -2.6902878    -0.3944657     0.9930599
C           0.9475542    -0.2923265    -0.0681208
C          -0.7794613    -1.3935510     0.9200824
H          -1.1235194    -2.2911327     1.4298332
N           0.5063853    -1.3820712     0.5537805
S           2.6918507    -0.3379691    -0.5828190
N           3.5366105    -0.7162243     0.7960367
C           3.7110503    -2.1088088     1.1983599
H           3.1543074    -2.7612160     0.5279696
H           3.3432359    -2.2531896     2.2218010
H           4.7738048    -2.3836010     1.1585402
C           4.3044228     0.2928349     1.5154800
H           4.1129958     1.2764710     1.0881711
H           5.3794911     0.0804937     1.4376260
H           4.0238241     0.2962297     2.5768948
O           2.8198934    -1.4479597    -1.5287976
O           3.0452887     1.0363602    -0.9580479
22
205_C7H10N2O2S_6-10-11-16 (-90,) energy =    -930.8224216
C           0.2804515     0.8332945    -0.3781364
H           0.7080818     1.6844672    -0.8947088
C          -1.0530309     0.7941243     0.0304437
H          -1.7129828     1.6336512    -0.1694793
C          -1.5216705    -0.3365602     0.6984584
H          -2.5520895    -0.4063167     1.0329140
C           1.0664060    -0.2822360    -0.0931116
C          -0.6341170    -1.3884862     0.9368651
H          -0.9614744    -2.2837695     1.4613231
N           0.6453469    -1.3698187     0.5468252
S           2.8012423    -0.3185469    -0.6441189
N           3.7137699    -0.7427987     0.6782207
C           3.7293372    -2.1249805     1.1506568
H           3.4063513    -2.7875088     0.3485311
H           3.0711939    -2.2630556     2.0180934
H           4.7567386    -2.3864651     1.4316191
C           4.2436706     0.2794471     1.5737204
H           4.2525654     1.2421423     1.0637211
H           5.2739443     0.0132855     1.8378057
H           3.6551904     0.3590097     2.4999381
O           2.9043595    -1.4047760    -1.6190274
O           3.1508633     1.0627313    -0.9926257
22
205_C7H10N2O2S_6-10-11-16 (-75,) energy =    -930.8235608
C           0.3656186     0.8827929    -0.4523942
H           0.7928125     1.7060380    -1.0126691
C          -0.9544439     0.8849727    -0.0008457
H          -1.6050909     1.7292624    -0.2109144
C          -1.4219752    -0.2110472     0.7235064
H          -2.4423527    -0.2476520     1.0922768
C           1.1392726    -0.2375440    -0.1521393
C          -0.5471142    -1.2706610     0.9739078
H          -0.8732425    -2.1389094     1.5426405
N           0.7190436    -1.2920227     0.5420870
S           2.8548868    -0.3305730    -0.7580744
N           3.8123855    -0.7340909     0.5487815
C           3.8211376    -2.1177773     1.0269461
H           3.6173919    -2.7883000     0.1928391
H           3.0766800    -2.2840974     1.8160061
H           4.8213745    -2.3354043     1.4186868
C           4.0969264     0.2969907     1.5445971
H           4.1464229     1.2706660     1.0572100
H           5.0735010     0.0803213     1.9907893
H           3.3442323     0.3216728     2.3476748
O           2.9230410    -1.4447963    -1.7031947
O           3.2136515     1.0351467    -1.1544060
22
205_C7H10N2O2S_6-10-11-16 (-60,) energy =    -930.8235483
C           0.3807839     0.9071383    -0.4822803
H           0.7901579     1.6846347    -1.1163641
C          -0.9267407     0.9429900     0.0026797
H          -1.5860420     1.7664265    -0.2571376
C          -1.3700599    -0.0914891     0.8262407
H          -2.3797253    -0.0999228     1.2249574
C           1.1666184    -0.1839106    -0.1142816
C          -0.4845424    -1.1252712     1.1386532
H          -0.7908156    -1.9443720     1.7858314
N           0.7695734    -1.1796061     0.6746417
S           2.8640395    -0.3251266    -0.7625243
N           3.8465024    -0.7075384     0.5415154
C           3.9418785    -2.1144501     0.9474121
H           3.8782295    -2.7477036     0.0634886
H           3.1503573    -2.3933357     1.6546043
H           4.9205677    -2.2606271     1.4176711
C           3.8735389     0.2572099     1.6419128
H           3.8533837     1.2711802     1.2395044
H           4.8123561     0.1232382     2.1890752
H           3.0356291     0.1164186     2.3411772
O           2.9099948    -1.4584490    -1.6865781
O           3.2234582     1.0281862    -1.1986911
22
205_C7H10N2O2S_6-10-11-16 (-45,) energy =    -930.8215813
C           0.3919792     0.9102389    -0.4788763
H           0.8065212     1.6550185    -1.1476827
C          -0.9037829     0.9932309     0.0319241
H          -1.5490049     1.8233865    -0.2414318
C          -1.3539854    -0.0033076     0.8972362
H          -2.3551405     0.0257577     1.3159322
C           1.1584620    -0.1871464    -0.0910116
C          -0.4874071    -1.0488273     1.2244506
H          -0.8001195    -1.8394498     1.9031204
N           0.7546500    -1.1488241     0.7365995
S           2.8346029    -0.3963375    -0.7769669
N           3.8600070    -0.6842757     0.5346463
C           4.0888069    -2.0907935     0.8970656
H           4.1829959    -2.6869950    -0.0090770
H           3.2797642    -2.4961226     1.5193529
H           5.0318210    -2.1370926     1.4522493
C           3.6627223     0.1932186     1.6920965
H           3.4993733     1.2188414     1.3532128
H           4.5802990     0.1781107     2.2891008
H           2.8223750    -0.1290527     2.3229500
O           2.8609534    -1.5886194    -1.6247104
O           3.1796967     0.9228237    -1.3173195
22
205_C7H10N2O2S_6-10-11-16 (-30,) energy =    -930.8176433
C           0.4563518     0.9055734    -0.5312224
H           0.9039417     1.6127852    -1.2189876
C          -0.8331843     1.0607088    -0.0207065
H          -1.4381028     1.9149357    -0.3113895
C          -1.3298968     0.1040285     0.8637108
H          -2.3282088     0.1884053     1.2817401
C           1.1695283    -0.2190204    -0.1206765
C          -0.5147237    -0.9763956     1.2099644
H          -0.8647294    -1.7391471     1.9021694
N           0.7204022    -1.1449087     0.7239477
S           2.8241789    -0.5309852    -0.8232934
N           3.8974172    -0.6979679     0.4900782
C           4.3108846    -2.0777970     0.7936620
H           4.5300860    -2.6080803    -0.1312259
H           3.5465841    -2.6317742     1.3564375
H           5.2251845    -2.0160256     1.3932367
C           3.5502363     0.0600199     1.6968905
H           3.2376527     1.0718883     1.4253447
H           4.4533391     0.1460838     2.3097592
H           2.7602004    -0.4238961     2.2864537
O           2.8104941    -1.8001990    -1.5528810
O           3.1674632     0.7206058    -1.5069497
22
205_C7H10N2O2S_6-10-11-16 (-15,) energy =    -930.8135166
C           0.4940086     0.8954344    -0.5651826
H           0.9815137     1.5583207    -1.2696668
C          -0.7906376     1.1288395    -0.0717561
H          -1.3491013     2.0045599    -0.3900803
C          -1.3434871     0.2203935     0.8296702
H          -2.3404493     0.3653925     1.2340682
C           1.1450510    -0.2526784    -0.1178615
C          -0.5880969    -0.8921343     1.2094033
H          -0.9843693    -1.6203185     1.9137913
N           0.6415779    -1.1342803     0.7422110
S           2.7807364    -0.6681605    -0.8149489
N           3.8844481    -0.6932941     0.4969337
C           4.5406620    -1.9937157     0.7053186
H           4.8647755    -2.4075323    -0.2483254
H           3.8894473    -2.7235515     1.2067219
H           5.4229051    -1.8107156     1.3275109
C           3.4439329    -0.0810055     1.7542404
H           2.9874704     0.8934218     1.5614799
H           4.3348152     0.0893489     2.3674333
H           2.7364332    -0.7093971     2.3115357
O           2.7301955    -2.0137115    -1.3930287
O           3.1227373     0.4816875    -1.6600901
22
205_C7H10N2O2S_6-10-11-16 (0,) energy =    -930.8110672
C           0.4890677     0.9023743    -0.5395670
H           1.0126019     1.5260782    -1.2540694
C          -0.7878560     1.2065492    -0.0642439
H          -1.3009659     2.1018203    -0.4037412
C          -1.3919473     0.3413357     0.8463564
H          -2.3850747     0.5407734     1.2367895
C           1.0797716    -0.2666368    -0.0637363
C          -0.6947319    -0.7998329     1.2528496
H          -1.1333501    -1.4966775     1.9638255
N           0.5267572    -1.1081317     0.8047800
S           2.6945957    -0.7711784    -0.7504337
N           3.8189697    -0.6544478     0.5443930
C           4.7109387    -1.8211263     0.6214088
H           5.1130016    -2.0536879    -0.3653336
H           4.2127254    -2.7159933     1.0187840
H           5.5431071    -1.5457007     1.2769512
C           3.3323534    -0.2112240     1.8543584
H           2.7545930     0.7103733     1.7534538
H           4.2125330     0.0180692     2.4636429
H           2.7221678    -0.9640503     2.3718702
O           2.6082414    -2.1733942    -1.1723552
O           3.0374387     0.2599660    -1.7373797
22
205_C7H10N2O2S_6-10-11-16 (15,) energy =    -930.8108252
C           0.7030874     0.7346878    -0.7716482
H           1.2884459     1.2704651    -1.5093484
C          -0.5600828     1.1603822    -0.3562190
H          -0.9964055     2.0665584    -0.7666566
C          -1.2502043     0.4006875     0.5866415
H          -2.2362910     0.6944978     0.9328880
C           1.1934259    -0.4399110    -0.2045597
C          -0.6498899    -0.7595646     1.0843984
H          -1.1578107    -1.3770028     1.8221270
N           0.5576171    -1.1821274     0.6961821
S           2.7829357    -1.0975850    -0.8144256
N           3.9031636    -0.8187108     0.4574334
C           4.9644945    -1.8351598     0.4593946
H           5.3633998    -1.9561852    -0.5500775
H           4.6212775    -2.8123238     0.8254341
H           5.7694206    -1.4648228     1.1016744
C           3.3961419    -0.4829496     1.7911438
H           2.7304047     0.3803668     1.7392215
H           4.2628182    -0.1957968     2.3952849
H           2.8725337    -1.3114592     2.2886636
O           2.6291043    -2.5420669    -1.0256594
O           3.1776728    -0.2473932    -1.9444085
22
205_C7H10N2O2S_6-10-11-16 (30,) energy =    -930.8124267
C           0.7429931     0.7060948    -0.7972218
H           1.3659088     1.1876902    -1.5416172
C          -0.5073734     1.2028224    -0.4245163
H          -0.8937129     2.1122700    -0.8757237
C          -1.2500562     0.5084748     0.5287221
H          -2.2288233     0.8578120     0.8427326
C           1.1683863    -0.4678472    -0.1783697
C          -0.7130073    -0.6588730     1.0792876
H          -1.2638953    -1.2260766     1.8264228
N           0.4820752    -1.1484693     0.7331427
S           2.7390873    -1.2108029    -0.7348919
N           3.8603331    -0.8166115     0.5002104
C           5.0666579    -1.6482686     0.3813588
H           5.4045331    -1.6502450    -0.6576699
H           4.9051320    -2.6840706     0.7102364
H           5.8481109    -1.1876095     0.9933319
C           3.3654038    -0.6657484     1.8723542
H           2.5986002     0.1082338     1.9182404
H           4.2145142    -0.3313321     2.4769417
H           2.9656798    -1.5945073     2.3041510
O           2.5458260    -2.6646571    -0.8075260
O           3.1588399    -0.4819152    -1.9382976
22
205_C7H10N2O2S_6-10-11-16 (45,) energy =    -930.8151773
C           0.7598599     0.6654460    -0.8519707
H           1.4030232     1.0813857    -1.6182636
C          -0.4728510     1.2274388    -0.5168867
H          -0.8235859     2.1228786    -1.0219768
C          -1.2449642     0.6164425     0.4697452
H          -2.2116292     1.0188302     0.7565553
C           1.1400168    -0.4864206    -0.1649402
C          -0.7536726    -0.5358914     1.0890783
H          -1.3273486    -1.0394818     1.8641249
N           0.4242592    -1.0884927     0.7783532
S           2.6884271    -1.3077487    -0.6713127
N           3.8094121    -0.8384487     0.5292228
C           5.1273600    -1.4425557     0.2836903
H           5.3910183    -1.3138973    -0.7680514
H           5.1578311    -2.5111286     0.5399028
H           5.8596433    -0.9039549     0.8928182
C           3.3725803    -0.9007012     1.9282979
H           2.4797975    -0.2948924     2.0783907
H           4.1802616    -0.4742115     2.5315921
H           3.1713763    -1.9245006     2.2761472
O           2.4530852    -2.7567324    -0.6411164
O           3.1311584    -0.6721559    -1.9189123
22
205_C7H10N2O2S_6-10-11-16 (60,) energy =    -930.8186299
C           0.7334899     0.5483046    -0.9386747
H           1.3743438     0.8516446    -1.7577422
C          -0.4635411     1.1993937    -0.6400341
H          -0.7876378     2.0504220    -1.2322603
C          -1.2351137     0.7367321     0.4249783
H          -2.1746601     1.2127630     0.6879789
C           1.0827151    -0.5409387    -0.1407241
C          -0.7775021    -0.3621000     1.1552360
H          -1.3494267    -0.7507462     1.9949531
N           0.3645853    -1.0022002     0.8776864
S           2.5882516    -1.4690687    -0.5901574
N           3.7090111    -0.9834350     0.5882833
C           5.1036432    -1.2663316     0.2284753
H           5.2761314    -0.9752666    -0.8083121
H           5.3651910    -2.3264681     0.3606911
H           5.7439468    -0.6601838     0.8772349
C           3.3675497    -1.2627057     1.9874095
H           2.3279995    -1.0052949     2.1846959
H           4.0140195    -0.6390812     2.6136900
H           3.5218759    -2.3185831     2.2541710
O           2.2680739    -2.8974947    -0.4839916
O           3.0721897    -0.9185468    -1.8626867
22
205_C7H10N2O2S_6-10-11-16 (75,) energy =    -930.8213882
C           0.6913362     0.4705644    -1.0325038
H           1.2895593     0.6665444    -1.9140928
C          -0.4770717     1.1758523    -0.7440364
H          -0.8240390     1.9581762    -1.4131133
C          -1.1895352     0.8588290     0.4117022
H          -2.1042731     1.3825696     0.6713130
C           1.0722535    -0.5250521    -0.1337318
C          -0.7042343    -0.1560937     1.2387009
H          -1.2301668    -0.4310502     2.1503393
N           0.4087108    -0.8492267     0.9717257
S           2.5524541    -1.5121671    -0.5268717
N           3.6478691    -1.0166472     0.6681349
C           5.0579819    -1.0246923     0.2591748
H           5.1529940    -0.5834265    -0.7327023
H           5.4882942    -2.0369746     0.2503238
H           5.6129449    -0.4131448     0.9777575
C           3.3975141    -1.5560849     2.0125419
H           2.3348204    -1.4908585     2.2462461
H           3.9575147    -0.9412341     2.7247049
H           3.7214183    -2.6019612     2.1067539
O           2.1937366    -2.9265210    -0.3759353
O           3.0720997    -1.0073919    -1.8042268
22
205_C7H10N2O2S_6-10-11-16 (90,) energy =    -930.8219205
C           0.6417283     0.3825770    -1.1141985
H           1.1942055     0.4654138    -2.0423836
C          -0.4938884     1.1470463    -0.8430803
H          -0.8629065     1.8594020    -1.5755827
C          -1.1440309     0.9808110     0.3786466
H          -2.0304709     1.5560548     0.6271438
C           1.0523845    -0.5136522    -0.1297978
C          -0.6330373     0.0512894     1.2878788
H          -1.1118089    -0.1052719     2.2521341
N           0.4488329    -0.6948936     1.0411988
S           2.4970870    -1.5698449    -0.4525713
N           3.5682653    -1.0836757     0.7692837
C           4.9486661    -0.8260816     0.3390833
H           4.9465029    -0.2595283    -0.5912049
H           5.5256958    -1.7511070     0.1936775
H           5.4311721    -0.2306508     1.1207999
C           3.4568283    -1.8404508     2.0253066
H           2.4076526    -1.9299396     2.3070962
H           3.9812758    -1.2716306     2.7998498
H           3.9006498    -2.8421804     1.9500313
O           2.0878540    -2.9639948    -0.2581636
O           3.0617458    -1.1211287    -1.7321559
22
205_C7H10N2O2S_6-10-11-16 (105,) energy =    -930.8210410
C           0.5608286     0.3518501    -1.1260239
H           1.0732758     0.3008369    -2.0792466
C          -0.5102632     1.2163543    -0.8923759
H          -0.8658829     1.8740484    -1.6805505
C          -1.1128167     1.2198323     0.3641792
H          -1.9482467     1.8765765     0.5861509
C           0.9594966    -0.4623004    -0.0686506
C          -0.6204311     0.3546163     1.3455648
H          -1.0648525     0.3297282     2.3383846
N           0.4019266    -0.4807252     1.1382133
S           2.3178319    -1.6452210    -0.3168370
N           3.4225193    -1.1963391     0.8782154
C           4.7009756    -0.6413833     0.4236225
H           4.5432840     0.0164562    -0.4303615
H           5.4189567    -1.4228739     0.1361848
H           5.1250720    -0.0584707     1.2479018
C           3.5100213    -2.0722846     2.0516989
H           2.5121755    -2.3900181     2.3510575
H           3.9542434    -1.4926333     2.8676055
H           4.1297440    -2.9602536     1.8647797
O           1.8035384    -2.9834832    -0.0168567
O           2.9004601    -1.3268628    -1.6274920
22
205_C7H10N2O2S_6-10-11-16 (120,) energy =    -930.8205351
C           0.6183143     0.2732025    -1.1543176
H           1.1296819     0.1534733    -2.1019530
C          -0.4176023     1.1911204    -0.9697299
H          -0.7433898     1.8234780    -1.7908580
C          -1.0239513     1.2795466     0.2815953
H          -1.8328779     1.9794813     0.4668784
C           0.9813287    -0.5031797    -0.0558703
C          -0.5704481     0.4435263     1.3066345
H          -1.0197679     0.4838414     2.2968098
N           0.4196183    -0.4392836     1.1469836
S           2.2866836    -1.7578779    -0.2459557
N           3.3957520    -1.3309422     0.9424211
C           4.5055204    -0.4706684     0.5308911
H           4.1580847     0.2873050    -0.1728050
H           5.3212339    -1.0355712     0.0586629
H           4.8909368     0.0348668     1.4225090
C           3.7003685    -2.3093906     1.9874417
H           2.8113314    -2.8977464     2.2088955
H           4.0017023    -1.7640467     2.8883820
H           4.5141190    -2.9883748     1.6938208
O           1.7176072    -3.0584575     0.1128404
O           2.8765576    -1.5239712    -1.5717701
22
205_C7H10N2O2S_6-10-11-16 (135,) energy =    -930.8203869
C           0.6544442     0.2475726    -1.1530946
H           1.1852562     0.0836767    -2.0832765
C          -0.3500380     1.2084338    -1.0189585
H          -0.6285542     1.8324862    -1.8634527
C          -0.9863109     1.3494535     0.2123367
H          -1.7726896     2.0834863     0.3588327
C           0.9574602    -0.5150901    -0.0269205
C          -0.5937461     0.5210356     1.2684724
H          -1.0692953     0.6017816     2.2437804
N           0.3658451    -0.4017725     1.1575368
S           2.2140896    -1.8271034    -0.1610428
N           3.3289055    -1.3711095     1.0196516
C           4.3236366    -0.3853261     0.5925995
H           3.8409700     0.4201821     0.0341112
H           5.1120226    -0.8226653    -0.0352243
H           4.7758278     0.0467484     1.4908744
C           3.8309250    -2.4279084     1.9020670
H           3.0156551    -3.1022074     2.1610001
H           4.2053474    -1.9524171     2.8145507
H           4.6459396    -3.0071735     1.4434032
O           1.6154210    -3.0934365     0.2644290
O           2.7990245    -1.6855929    -1.5036757
22
205_C7H10N2O2S_6-10-11-16 (150,) energy =    -930.8200380
C           0.7036300     0.2247726    -1.1557802
H           1.2491198     0.0195990    -2.0691455
C          -0.2797137     1.2126689    -1.0711652
H          -0.5260313     1.8168359    -1.9397356
C          -0.9364667     1.4062218     0.1421992
H          -1.7075183     2.1627899     0.2506819
C           0.9646613    -0.5107578    -0.0012041
C          -0.5856883     0.6011658     1.2305361
H          -1.0778975     0.7223185     2.1932645
N           0.3518754    -0.3486127     1.1664389
S           2.1806982    -1.8658103    -0.0823774
N           3.2958716    -1.3916014     1.1024575
C           4.1798384    -0.2985502     0.6861359
H           3.5921785     0.5155362     0.2538132
H           4.9342733    -0.6171284    -0.0464692
H           4.6815824     0.0845590     1.5799855
C           3.9874315    -2.4984655     1.7759387
H           3.2622416    -3.2654344     2.0467655
H           4.4405431    -2.0985125     2.6884816
H           4.7767204    -2.9459243     1.1536849
O           1.5565794    -3.1053553     0.3824191
O           2.7714041    -1.7933180    -1.4298207
22
205_C7H10N2O2S_6-10-11-16 (165,) energy =    -930.8189159
C           0.7113975     0.1615940    -1.1426115
H           1.2533400    -0.1043435    -2.0422731
C          -0.2448484     1.1783877    -1.1116093
H          -0.4758303     1.7420526    -2.0110404
C          -0.8945442     1.4548413     0.0897485
H          -1.6447235     2.2368263     0.1563265
C           0.9515208    -0.5190858     0.0498400
C          -0.5648834     0.7008036     1.2200168
H          -1.0514592     0.8878637     2.1749427
N           0.3440750    -0.2790287     1.2066067
S           2.1175460    -1.9200232     0.0298030
N           3.2449650    -1.4445569     1.2160256
C           4.0194292    -0.2550053     0.8389578
H           3.3466467     0.5586343     0.5567874
H           4.7173210    -0.4458832     0.0113510
H           4.5831634     0.0652620     1.7203487
C           4.1027837    -2.5607458     1.6480682
H           3.4783328    -3.4196347     1.8960039
H           4.6339885    -2.2385278     2.5487224
H           4.8381953    -2.8490501     0.8825256
O           1.4543347    -3.1257218     0.5279865
O           2.7218739    -1.9185639    -1.3150694
22
205_C7H10N2O2S_6-10-11-16 (180,) energy =    -930.8168024
C           0.7096250     0.0746498    -1.1288914
H           1.2396985    -0.2571259    -2.0135281
C          -0.2174619     1.1179831    -1.1518397
H          -0.4387115     1.6347715    -2.0813612
C          -0.8505340     1.4830660     0.0348641
H          -1.5775373     2.2889861     0.0591604
C           0.9367000    -0.5428891     0.0998182
C          -0.5341107     0.7881493     1.2058518
H          -1.0064133     1.0456065     2.1514352
N           0.3446971    -0.2187003     1.2441501
S           2.0544619    -1.9814028     0.1457835
N           3.2136569    -1.5084063     1.3168448
C           3.8559897    -0.2194720     1.0159896
H           3.1063108     0.5714138     0.9514382
H           4.4467614    -0.2415871     0.0883337
H           4.5186003     0.0155534     1.8542811
C           4.2181046    -2.5765424     1.4865349
H           3.7084306    -3.5241306     1.6700818
H           4.8181772    -2.3279112     2.3666770
H           4.8782132    -2.6767735     0.6131831
O           1.3532066    -3.1474594     0.6835973
O           2.6630328    -2.0541270    -1.1962438
