25
001_C13H12_0-3-4-10 (-165,) energy =    -502.6145069
C          -0.0858907    -0.8990326    -1.0593431
C          -1.3524693    -0.6020473    -0.5590360
C          -1.4976433     0.3327186     0.4689656
C           1.0600096    -0.2719896    -0.5478889
C           2.4195565    -0.5992256    -1.1623847
C          -0.3660875     0.9629028     0.9852754
C           5.8857251     0.6017675     1.1411319
C           5.1732280    -0.5489133     1.4876284
C           0.9020255     0.6637511     0.4803589
C           4.0579325    -0.9321941     0.7435853
C           3.6332910    -0.1776522    -0.3596901
C           4.3561982     0.9734186    -0.6957020
C           5.4734292     1.3624437     0.0468541
H           0.0184376    -1.6307646    -1.8584298
H          -2.2259518    -1.1029966    -0.9688205
H          -2.4833668     0.5644516     0.8635992
H           2.4637627    -1.6812238    -1.3445049
H           2.4725574    -0.1310487    -2.1553457
H          -0.4658945     1.6911690     1.7862340
H           6.7566422     0.9003542     1.7185254
H           5.4887221    -1.1500781     2.3365249
H           1.7753339     1.1598653     0.8926277
H           3.5070119    -1.8287379     1.0194251
H           4.0427402     1.5693554    -1.5502294
H           6.0222781     2.2578808    -0.2332626
25
001_C13H12_0-3-4-10 (-150,) energy =    -502.6149227
C          -0.0253325    -0.9994967    -0.9535206
C          -1.2889312    -0.7849247    -0.4020891
C          -1.4805913     0.2344729     0.5319365
C           1.0679959    -0.2035512    -0.5863719
C           2.4218067    -0.4226453    -1.2531579
C          -0.3992686     1.0337590     0.9061201
C           5.8885991     0.4901090     1.1809278
C           5.0689620    -0.5964726     1.4986477
C           0.8630246     0.8166063     0.3515075
C           3.9525745    -0.8842813     0.7154965
C           3.6332300    -0.0964997    -0.4006161
C           4.4616211     0.9890948    -0.7071363
C           5.5811634     1.2828879     0.0757740
H           0.1161474    -1.7983044    -1.6789367
H          -2.1217087    -1.4175664    -0.6987721
H          -2.4625418     0.4020834     0.9664229
H           2.4796770    -1.4676745    -1.5849614
H           2.4648331     0.1817394    -2.1702567
H          -0.5364154     1.8291095     1.6344314
H           6.7597248     0.7145965     1.7906747
H           5.3014836    -1.2210404     2.3574066
H           1.6992066     1.4406236     0.6540658
H           3.3162222    -1.7285641     0.9711448
H           4.2302542     1.6094432    -1.5704365
H           6.2118907     2.1300678    -0.1811627
25
001_C13H12_0-3-4-10 (-135,) energy =    -502.6152325
C           0.0613524    -1.0705302    -0.8449888
C          -1.1915236    -0.9394490    -0.2417490
C          -1.4546588     0.1452449     0.5946046
C           1.0694709    -0.1243661    -0.6255684
C           2.4155444    -0.2524938    -1.3249248
C          -0.4561652     1.0953984     0.8227664
C           5.8866480     0.3664661     1.1976785
C           4.9770282    -0.6549270     1.4859077
C           0.7933285     0.9604508     0.2189405
C           3.8582003    -0.8464903     0.6775146
C           3.6262162    -0.0250599    -0.4359033
C           4.5431692     0.9950145    -0.7129354
C           5.6656830     1.1917301     0.0958661
H           0.2587769    -1.9194844    -1.4963142
H          -1.9588602    -1.6875900    -0.4238887
H          -2.4276052     0.2491611     1.0675443
H           2.4791683    -1.2499811    -1.7795523
H           2.4557306     0.4592605    -2.1609891
H          -0.6503828     1.9432295     1.4748631
H           6.7588677     0.5162584     1.8284425
H           5.1404862    -1.3032526     2.3430136
H           1.5676679     1.6993644     0.4087819
H           3.1504569    -1.6381384     0.9123613
H           4.3793299     1.6408590    -1.5730446
H           6.3652438     1.9902999    -0.1375715
25
001_C13H12_0-3-4-10 (-120,) energy =    -502.6152947
C           0.1588950    -1.1100533    -0.7194974
C          -1.0793646    -1.0432859    -0.0752296
C          -1.4331950     0.0989257     0.6417265
C           1.0604514    -0.0415982    -0.6588539
C           2.4025041    -0.1080077    -1.3700069
C          -0.5405390     1.1722380     0.7113445
C           5.8687032     0.2390082     1.2142209
C           4.8977341    -0.7347358     1.4637844
C           0.6939338     1.1002746     0.0687596
C           3.7797329    -0.8387411     0.6381385
C           3.6105647     0.0240174    -0.4546420
C           4.5885965     0.9961357    -0.6929462
C           5.7102008     1.1051468     0.1331110
H           0.4263380    -2.0030180    -1.2806218
H          -1.7648105    -1.8848286    -0.1353539
H          -2.3955132     0.1545284     1.1436338
H           2.4635888    -1.0582503    -1.9171436
H           2.4515037     0.6816594    -2.1311661
H          -0.8072374     2.0666245     1.2686968
H           6.7395336     0.3212062     1.8591744
H           5.0114395    -1.4135126     2.3052457
H           1.3875074     1.9353290     0.1352046
H           3.0232190    -1.5919160     0.8450805
H           4.4732008     1.6740867    -1.5360859
H           6.4572763     1.8683115    -0.0696866
25
001_C13H12_0-3-4-10 (-105,) energy =    -502.6150719
C           0.2792879    -1.1250828    -0.5896861
C          -0.9445431    -1.1272722     0.0845022
C          -1.4156054     0.0417864     0.6811368
C           1.0505083     0.0397850    -0.6780971
C           2.3909251     0.0405141    -1.3915204
C          -0.6550157     1.2113957     0.6002467
C           5.8744742     0.1035616     1.1968870
C           4.8439455    -0.8109771     1.4282803
C           0.5664411     1.2075843    -0.0710937
C           3.7184026    -0.8245207     0.6055921
C           3.6013832     0.0717882    -0.4660767
C           4.6389336     0.9854549    -0.6855805
C           5.7679565     1.0031522     0.1365560
H           0.6360678    -2.0385576    -1.0610343
H          -1.5290503    -2.0421479     0.1389005
H          -2.3684207     0.0443188     1.2037495
H           2.4510965    -0.8516641    -2.0298671
H           2.4461179     0.9015990    -2.0688954
H          -1.0151218     2.1279073     1.0606399
H           6.7504951     0.1154867     1.8399407
H           4.9155824    -1.5141036     2.2542704
H           1.1565425     2.1198497    -0.1244689
H           2.9160868    -1.5313469     0.8014251
H           4.5637989     1.6901603    -1.5111828
H           6.5610197     1.7224315    -0.0516213
25
001_C13H12_0-3-4-10 (-90,) energy =    -502.6143357
C           0.3997050    -1.1097217    -0.4241393
C          -0.8161779    -1.1499053     0.2611877
C          -1.4128642     0.0329110     0.6988971
C           1.0396088     0.1093091    -0.6844601
C           2.3847275     0.1543003    -1.3867567
C          -0.7855021     1.2545523     0.4452662
C           5.8830091    -0.0168362     1.1797832
C           4.8442144    -0.9343130     1.3526081
C           0.4302794     1.2895857    -0.2372873
C           3.7125412    -0.8749608     0.5399637
C           3.5977183     0.0980855    -0.4623052
C           4.6441408     1.0148344    -0.6224835
C           5.7790833     0.9592709     0.1891426
H           0.8485161    -2.0359039    -0.7772620
H          -1.2987560    -2.1058883     0.4476803
H          -2.3609135     0.0042118     1.2292987
H           2.4401750    -0.6843887    -2.0955207
H           2.4526540     1.0660145    -1.9909825
H          -1.2439534     2.1819519     0.7789147
H           6.7638555    -0.0617206     1.8146733
H           4.9129973    -1.6966116     2.1246139
H           0.9154135     2.2446623    -0.4267967
H           2.9049967    -1.5851835     0.6946286
H           4.5710035     1.7797399    -1.3928456
H           6.5787236     1.6819712     0.0477544
25
001_C13H12_0-3-4-10 (-75,) energy =    -502.6150605
C           0.5555522     0.7510823     0.9727026
C          -0.6684567     1.2488728     0.5291562
C          -1.4360029     0.5155895    -0.3797017
C           1.0375224    -0.4851550     0.5190183
C           2.3735098    -1.0176604     1.0078339
C          -0.9701270    -0.7172216    -0.8355157
C           5.8571959     0.9034349    -0.7279697
C           5.7196886     0.8140693     0.6567190
C           0.2562373    -1.2132097    -0.3859773
C           4.5922181     0.2022812     1.2098565
C           3.5868879    -0.3300468     0.3943437
C           3.7341387    -0.2306861    -0.9964574
C           4.8584713     0.3779586    -1.5519222
H           1.1501841     1.3288761     1.6768987
H          -1.0255665     2.2085450     0.8940654
H          -2.3911223     0.9019061    -0.7253942
H           2.4296667    -0.9231187     2.0990593
H           2.4243256    -2.0934265     0.7917030
H          -1.5619687    -1.2985589    -1.5379158
H           6.7320346     1.3795213    -1.1628078
H           6.4874222     1.2214915     1.3096279
H           0.6070493    -2.1816930    -0.7365610
H           4.4935232     0.1349418     2.2913351
H           2.9569671    -0.6249182    -1.6466202
H           4.9547885     0.4448899    -2.6326298
25
001_C13H12_0-3-4-10 (-60,) energy =    -502.6153031
C           0.6828510     0.7933223     0.7668222
C          -0.5506486     1.3079322     0.3722980
C          -1.4526867     0.5137443    -0.3414851
C           1.0392952    -0.5279279     0.4588642
C           2.3777236    -1.0933053     0.9063596
C          -1.1086106    -0.8002539    -0.6555358
C           5.8583263     0.9863080    -0.6360623
C           5.6993595     0.8064411     0.7374500
C           0.1285519    -1.3132793    -0.2565626
C           4.5735220     0.1431274     1.2321789
C           3.5909024    -0.3505487     0.3666776
C           3.7602903    -0.1601726    -1.0125576
C           4.8826283     0.4994902    -1.5102542
H           1.3821199     1.4214432     1.3138900
H          -0.8100014     2.3337458     0.6213985
H          -2.4135752     0.9176302    -0.6491830
H           2.4250329    -1.0941317     2.0033043
H           2.4333721    -2.1469238     0.6017604
H          -1.8001015    -1.4287597    -1.2109520
H           6.7325566     1.5023860    -1.0239772
H           6.4498742     1.1828609     1.4278674
H           0.3883202    -2.3410513    -0.5014006
H           4.4584072     0.0047785     2.3052355
H           3.0004103    -0.5267151    -1.6985876
H           4.9961092     0.6360257    -2.5827262
25
001_C13H12_0-3-4-10 (-45,) energy =    -502.6152050
C           0.7885234     0.7997013     0.5595066
C          -0.4590787     1.3373921     0.2451356
C          -1.4739836     0.5189878    -0.2565343
C           1.0449774    -0.5673650     0.3828272
C           2.3905268    -1.1715128     0.7608615
C          -1.2294291    -0.8416463    -0.4420049
C           5.8671817     1.0749354    -0.5294500
C           5.6408877     0.8527130     0.8282253
C           0.0213643    -1.3761111    -0.1254662
C           4.5170960     0.1333249     1.2436732
C           3.6034347    -0.3742560     0.3133075
C           3.8407860    -0.1412109    -1.0496526
C           4.9609528     0.5741975    -1.4684837
H           1.5755339     1.4460193     0.9394627
H          -0.6386105     2.3997915     0.3894744
H          -2.4448754     0.9399463    -0.5040412
H           2.4350855    -1.2945972     1.8519052
H           2.4466252    -2.1858909     0.3444034
H          -2.0087745    -1.4883985    -0.8370595
H           6.7406279     1.6333355    -0.8555834
H           6.3378758     1.2380015     1.5680371
H           0.2053434    -2.4381089    -0.2746222
H           4.3496845    -0.0387828     2.3048411
H           3.1358773    -0.5211883    -1.7855052
H           5.1282415     0.7420783    -2.5293791
25
001_C13H12_0-3-4-10 (-30,) energy =    -502.6148622
C           0.8577400     0.7928370     0.3627696
C          -0.4015078     1.3538274     0.1428282
C          -1.4952748     0.5364660    -0.1453741
C           1.0458190    -0.5937792     0.3028998
C           2.3999684    -1.2385660     0.5812538
C          -1.3197613    -0.8467838    -0.2136008
C           5.8704527     1.1534477    -0.4271734
C           5.5518945     0.9098709     0.9084242
C          -0.0593870    -1.4029512     0.0059907
C           4.4321219     0.1397838     1.2333855
C           3.6132639    -0.3976578     0.2336744
C           3.9440421    -0.1429309    -1.1056398
C           5.0609407     0.6229771    -1.4353842
H           1.7041436     1.4383658     0.5788458
H          -0.5256207     2.4326685     0.1935958
H          -2.4748632     0.9734025    -0.3201708
H           2.4506219    -1.5053076     1.6466142
H           2.4481985    -2.1902279     0.0361950
H          -2.1624172    -1.4936884    -0.4443640
H           6.7421928     1.7499922    -0.6826495
H           6.1750129     1.3163337     1.7009104
H           0.0701605    -2.4818383    -0.0542003
H           4.1929571    -0.0494723     2.2777014
H           3.3158402    -0.5491446    -1.8952179
H           5.3017266     0.8053967    -2.4795880
25
001_C13H12_0-3-4-10 (-15,) energy =    -502.6144721
C           0.8907644     0.7792127     0.1700932
C          -0.3744479     1.3584491     0.0409442
C          -1.5127262     0.5569892    -0.0351090
C           1.0386765    -0.6108252     0.2276991
C           2.3966017    -1.2905248     0.3952707
C          -1.3770466    -0.8325158     0.0179319
C           5.8677761     1.1988369    -0.3233454
C           5.4467816     0.9428672     0.9818879
C          -0.1135923    -1.4068361     0.1456119
C           4.3284442     0.1385315     1.2120101
C           3.6127528    -0.4222347     0.1470104
C           4.0459927    -0.1557547    -1.1597859
C           5.1626667     0.6457851    -1.3949921
H           1.7693427     1.4146121     0.2247432
H          -0.4663633     2.4408255    -0.0025025
H          -2.4961311     1.0080111    -0.1380120
H           2.4564429    -1.6999549     1.4135252
H           2.4301547    -2.1604861    -0.2739068
H          -2.2557186    -1.4695414    -0.0451880
H           6.7397328     1.8214457    -0.5052433
H           5.9899191     1.3654341     1.8232838
H          -0.0168042    -2.4904387     0.1818451
H           4.0081625    -0.0600671     2.2325886
H           3.5011974    -0.5825990    -1.9990877
H           5.4850052     0.8364356    -2.4154287
25
001_C13H12_0-3-4-10 (0,) energy =    -502.6142940
C           0.9053414     0.7607948    -0.0032847
C          -0.3596379     1.3549327    -0.0391453
C          -1.5080410     0.5764540     0.0936778
C           1.0420475    -0.6206910     0.1660029
C           2.3986128    -1.3238648     0.2124497
C          -1.3840191    -0.8051799     0.2633334
C           5.8780667     1.2194869    -0.2143939
C           5.3493726     0.9578852     1.0509487
C          -0.1217204    -1.3937534     0.2985821
C           4.2298025     0.1357171     1.1859988
C           3.6186337    -0.4393982     0.0637120
C           4.1593116    -0.1681532    -1.2003206
C           5.2787476     0.6533245    -1.3409781
H           1.7914580     1.3788511    -0.1079113
H          -0.4426910     2.4307667    -0.1717303
H          -2.4911749     1.0387819     0.0657390
H           2.4685924    -1.8734788     1.1610608
H           2.4151794    -2.0909481    -0.5737663
H          -2.2715768    -1.4241595     0.3681366
H           6.7520159     1.8565193    -0.3213053
H           5.8109943     1.3906498     1.9347626
H          -0.0342332    -2.4707189     0.4311621
H           3.8244632    -0.0656952     2.1752822
H           3.6986445    -0.6078508    -2.0823588
H           5.6849565     0.8474734    -2.3303270
25
001_C13H12_0-3-4-10 (15,) energy =    -502.6144716
C           0.8844482     0.7341883    -0.1853065
C          -0.3754423     1.3362435    -0.1297379
C          -1.5006392     0.5871648     0.2118561
C           1.0405152    -0.6271721     0.0972765
C           2.3914984    -1.3368776     0.0243144
C          -1.3564539    -0.7723609     0.4995349
C           5.8785135     1.2283215    -0.1101783
C           5.2453573     0.9634239     1.1065217
C          -0.0982210    -1.3693464     0.4442504
C           4.1232644     0.1363216     1.1459489
C           3.6132685    -0.4427724    -0.0249668
C           4.2578173    -0.1685706    -1.2375316
C           5.3812412     0.6598719    -1.2832133
H           1.7529459     1.3297417    -0.4491597
H          -0.4734533     2.3957713    -0.3526153
H          -2.4798890     1.0563224     0.2573472
H           2.4716584    -2.0123967     0.8862649
H           2.3940563    -1.9879670    -0.8612191
H          -2.2244657    -1.3674170     0.7721201
H           6.7546042     1.8705446    -0.1420833
H           5.6278680     1.3989277     2.0260757
H           0.0050209    -2.4282773     0.6742015
H           3.6343788    -0.0653986     2.0965933
H           3.8774748    -0.6118749    -2.1553702
H           5.8684473     0.8569140    -2.2347001
25
001_C13H12_0-3-4-10 (30,) energy =    -502.6148633
C           0.8444787     0.7011432    -0.3634339
C          -0.4034334     1.3089193    -0.2145070
C          -1.4738471     0.5971638     0.3287268
C           1.0440418    -0.6298618     0.0241382
C           2.3835028    -1.3345423    -0.1660673
C          -1.2858186    -0.7284866     0.7238419
C           5.8907894     1.2029300     0.0167552
C           5.1446688     0.9456460     1.1701715
C          -0.0369845    -1.3319986     0.5743930
C           4.0151830     0.1314812     1.1063834
C           3.6093788    -0.4437359    -0.1071187
C           4.3650446    -0.1774000    -1.2547021
C           5.4972221     0.6394658    -1.1965745
H           1.6726825     1.2667524    -0.7806136
H          -0.5369395     2.3433084    -0.5211872
H          -2.4441201     1.0720284     0.4477563
H           2.4694396    -2.1239750     0.5920733
H           2.3738901    -1.8547370    -1.1344340
H          -2.1094333    -1.2919999     1.1550047
H           6.7722117     1.8367467     0.0658533
H           5.4448747     1.3789830     2.1208058
H           0.1024313    -2.3642608     0.8896724
H           3.4364871    -0.0612921     2.0069980
H           4.0663491    -0.6172865    -2.2038697
H           6.0706936     0.8318339    -2.0997183
25
001_C13H12_0-3-4-10 (45,) energy =    -502.6152011
C           0.7633346     0.6562039    -0.5482965
C          -0.4689133     1.2592156    -0.2987234
C          -1.4435381     0.5885932     0.4442088
C           1.0447743    -0.6295192    -0.0649123
C           2.3719214    -1.3113735    -0.3669281
C          -1.1736727    -0.6886936     0.9353868
C           5.9023167     1.1538888     0.1356882
C           5.0360227     0.9338573     1.2103073
C           0.0617211    -1.2889248     0.6827090
C           3.8972325     0.1481289     1.0433502
C           3.6017974    -0.4361086    -0.1974886
C           4.4760026    -0.2068047    -1.2658522
C           5.6183247     0.5815690    -1.1035591
H           1.5196933     1.1890781    -1.1187584
H          -0.6677783     2.2565682    -0.6827921
H          -2.4026895     1.0601160     0.6411310
H           2.4631119    -2.1975558     0.2752134
H           2.3534668    -1.6920739    -1.3975607
H          -1.9215451    -1.2187058     1.5197433
H           6.7899721     1.7673176     0.2654605
H           5.2487082     1.3762132     2.1802346
H           0.2653188    -2.2847504     1.0710598
H           3.2234025    -0.0123200     1.8817228
H           4.2624570    -0.6523166    -2.2352004
H           6.2837469     0.7469218    -1.9470458
25
001_C13H12_0-3-4-10 (60,) energy =    -502.6153116
C           0.6556950     0.5852601    -0.7535764
C          -0.5597600     1.1862707    -0.4320386
C          -1.4095890     0.5969388     0.5082832
C           1.0458616    -0.6173000    -0.1458594
C           2.3644014    -1.2781056    -0.5141795
C          -1.0317212    -0.5969832     1.1211119
C           5.9008106     1.1120576     0.2565457
C           4.9774270     0.8689034     1.2770433
C           0.1872069    -1.1973207     0.7945704
C           3.8364086     0.1089995     1.0256596
C           3.5964388    -0.4260511    -0.2484447
C           4.5268504    -0.1740260    -1.2629803
C           5.6710892     0.5885150    -1.0152005
H           1.3159595     1.0546919    -1.4791485
H          -0.8453004     2.1172922    -0.9150832
H          -2.3569573     1.0663611     0.7597047
H           2.4509563    -2.2224972     0.0395302
H           2.3498424    -1.5527192    -1.5771944
H          -1.6835749    -1.0645663     1.8546490
H           6.7894865     1.7061332     0.4525667
H           5.1463955     1.2743450     2.2714108
H           0.4731464    -2.1310793     1.2743050
H           3.1175387    -0.0669808     1.8223362
H           4.3560229    -0.5810556    -2.2574636
H           6.3802976     0.7730190    -1.8180861
25
001_C13H12_0-3-4-10 (75,) energy =    -502.6150485
C           0.5213572     0.4858648    -0.9433762
C          -0.6817036     1.0846457    -0.5733996
C          -1.3919599     0.6142673     0.5344516
C           1.0403246    -0.5937757    -0.2144439
C           2.3532556    -1.2400995    -0.6226885
C          -0.8882266    -0.4611452     1.2653020
C           5.9043342     1.0499421     0.3685976
C           4.9687619     0.7398052     1.3590727
C           0.3168403    -1.0601348     0.8893796
C           3.8238066     0.0126569     1.0375633
C           3.5910553    -0.4226688    -0.2748086
C           4.5342842    -0.1033750    -1.2581172
C           5.6827045     0.6263467    -0.9413174
H           1.0703745     0.8614971    -1.8041182
H          -1.0685875     1.9193467    -1.1523461
H          -2.3307969     1.0804779     0.8212979
H           2.4250324    -2.2257374    -0.1431013
H           2.3496663    -1.4263852    -1.7033937
H          -1.4338976    -0.8402341     2.1256198
H           6.7964890     1.6184461     0.6174205
H           5.1302768     1.0671922     2.3830580
H           0.6968573    -1.9066832     1.4575482
H           3.0948912    -0.2133256     1.8119035
H           4.3703856    -0.4316207    -2.2824264
H           6.4019805     0.8640995    -1.7209389
25
001_C13H12_0-3-4-10 (90,) energy =    -502.6143390
C           0.4574572     0.0050445    -1.2823207
C          -0.7330313     0.7264916    -1.1732043
C          -1.3692268     0.8433482     0.0630255
C           1.0321953    -0.6112266    -0.1628674
C           2.3506409    -1.3564214    -0.2679502
C          -0.8073850     0.2333746     1.1866876
C           5.9350420     1.0010678     0.4124020
C           5.7497239    -0.2134352     1.0724467
C           0.3833009    -0.4839305     1.0728368
C           4.5876437    -0.9571633     0.8565936
C           3.5939160    -0.5062367    -0.0207709
C           3.7914462     0.7181333    -0.6737127
C           4.9499821     1.4650679    -0.4623521
H           0.9370909    -0.0960403    -2.2537287
H          -1.1648254     1.1918957    -2.0555582
H          -2.2976940     1.4012823     0.1501430
H           2.3559479    -2.1929591     0.4400523
H           2.4228421    -1.8054127    -1.2688731
H          -1.2975238     0.3155794     2.1534278
H           6.8371243     1.5836334     0.5793357
H           6.5067728    -0.5833832     1.7592949
H           0.8174579    -0.9523074     1.9534928
H           4.4513491    -1.9034921     1.3758768
H           3.0263547     1.0975480    -1.3452839
H           5.0818561     2.4124295    -0.9790641
25
001_C13H12_0-3-4-10 (105,) energy =    -502.6150829
C           0.3322219    -0.1358327    -1.3461461
C          -0.8675427     0.5640052    -1.1936966
C          -1.3715084     0.8225233     0.0805185
C           1.0471965    -0.5877772    -0.2308310
C           2.3633411    -1.3286443    -0.3899908
C          -0.6661060     0.3764632     1.2014524
C           5.9109948     0.9910603     0.5415380
C           5.7128975    -0.2589220     1.1271255
C           0.5316040    -0.3190590     1.0453192
C           4.5641782    -0.9967939     0.8317628
C           3.5976907    -0.5017165    -0.0513515
C           3.8064650     0.7580085    -0.6304767
C           4.9519318     1.4973267    -0.3394483
H           0.7128516    -0.3419788    -2.3444305
H          -1.4086138     0.9034337    -2.0732330
H          -2.3058268     1.3642755     0.2013852
H           2.3592521    -2.2254875     0.2416100
H           2.4438582    -1.6866054    -1.4254636
H          -1.0510161     0.5709908     2.1992582
H           6.8029501     1.5682930     0.7701805
H           6.4500616    -0.6620500     1.8168926
H           1.0782783    -0.6572094     1.9228773
H           4.4177730    -1.9718268     1.2919253
H           3.0594785     1.1656098    -1.3070208
H           5.0952937     2.4720664    -0.7989109
25
001_C13H12_0-3-4-10 (120,) energy =    -502.6152928
C           0.2101350    -0.2455236    -1.3650871
C          -1.0088319     0.4013270    -1.1452013
C          -1.3858122     0.7588697     0.1485608
C           1.0690906    -0.5449856    -0.3017493
C           2.3900876    -1.2597284    -0.5409491
C          -0.5352458     0.4670317     1.2186151
C           5.9029654     0.9714991     0.6801076
C           5.6362603    -0.2771504     1.2401564
C           0.6803217    -0.1765393     0.9945789
C           4.5014491    -0.9924566     0.8488667
C           3.6175220    -0.4745871    -0.1043588
C           3.8952848     0.7839303    -0.6577930
C           5.0267864     1.5001031    -0.2719491
H           0.4956896    -0.5255034    -2.3769587
H          -1.6609400     0.6241042    -1.9859109
H          -2.3331928     1.2615726     0.3241335
H           2.3840284    -2.2237595    -0.0157486
H           2.4715993    -1.4973450    -1.6097069
H          -0.8203946     0.7429409     2.2306608
H           6.7847815     1.5304122     0.9818864
H           6.3096327    -0.6980594     1.9824869
H           1.3411464    -0.3911520     1.8312531
H           4.3024530    -1.9681806     1.2872423
H           3.2127838     1.2061388    -1.3917126
H           5.2257546     2.4732422    -0.7136682
25
001_C13H12_0-3-4-10 (135,) energy =    -502.6152364
C           0.0978952    -0.3904274    -1.3528139
C          -1.1390676     0.2048556    -1.0952628
C          -1.4200655     0.7125960     0.1730128
C           1.0724908    -0.4898867    -0.3528086
C           2.3997751    -1.1816727    -0.6320280
C          -0.4549069     0.6207425     1.1789234
C           5.9174085     0.9164556     0.7886650
C           5.6203415    -0.3580700     1.2694393
C           0.7789006     0.0262558     0.9174296
C           4.4833339    -1.0310863     0.8142483
C           3.6273046    -0.4447493    -0.1246498
C           3.9356304     0.8394364    -0.5980441
C           5.0692653     1.5136339    -0.1482728
H           0.3094297    -0.7835984    -2.3450765
H          -1.8800066     0.2736309    -1.8877180
H          -2.3805925     1.1784974     0.3765601
H           2.3827025    -2.1855266    -0.1856525
H           2.4901964    -1.3383911    -1.7149948
H          -0.6629689     1.0154344     2.1702260
H           6.8011522     1.4424268     1.1399627
H           6.2716802    -0.8321996     1.9991974
H           1.5277065    -0.0323500     1.7032257
H           4.2601678    -2.0270479     1.1910799
H           3.2759373     1.3133250    -1.3212517
H           5.2922967     2.5072382    -0.5286311
25
001_C13H12_0-3-4-10 (150,) energy =    -502.6149218
C           0.0061594    -0.5136010    -1.3177982
C          -1.2471659     0.0094813    -0.9979567
C          -1.4520107     0.6298089     0.2355912
C           1.0761824    -0.4299399    -0.4167674
C           2.4162305    -1.0664307    -0.7699481
C          -0.3940556     0.7200898     1.1414721
C           5.9162275     0.8641873     0.9004388
C           5.5385717    -0.4031911     1.3425508
C           0.8579328     0.1946139     0.8179357
C           4.4080427    -1.0233621     0.8041006
C           3.6392867    -0.3908617    -0.1795389
C           4.0291112     0.8851916    -0.6133348
C           5.1567224     1.5075094    -0.0807842
H           0.1581809    -0.9929692    -2.2828923
H          -2.0613879    -0.0634050    -1.7145559
H          -2.4257934     1.0418007     0.4868076
H           2.4037041    -2.1166697    -0.4457828
H           2.5085035    -1.0957223    -1.8636014
H          -0.5413215     1.2031856     2.1041590
H           6.7960405     1.3487736     1.3153178
H           6.1224491    -0.9128315     2.1047334
H           1.6760814     0.2756900     1.5279734
H           4.1210968    -2.0141042     1.1501635
H           3.4394165     1.3929650    -1.3733028
H           5.4450099     2.4949697    -0.4321228
25
001_C13H12_0-3-4-10 (165,) energy =    -502.6145064
C          -0.0616469    -0.6400069    -1.2531970
C          -1.3229798    -0.1884408    -0.8685851
C          -1.4754225     0.5431746     0.3117204
C           1.0725466    -0.3737865    -0.4717917
C           2.4244859    -0.9304455    -0.9142338
C          -0.3552181     0.8133729     1.0967326
C           5.9079058     0.7957004     0.9965863
C           5.4268494    -0.4476984     1.4072129
C           0.9078301     0.3582128     0.7092428
C           4.3043006    -1.0035948     0.7892781
C           3.6442892    -0.3301247    -0.2457227
C           4.1374406     0.9196402    -0.6478159
C           5.2584227     1.4783703    -0.0348916
H           0.0479491    -1.2067038    -2.1760631
H          -2.1868587    -0.4042808    -1.4922463
H          -2.4568683     0.8994981     0.6132503
H           2.4253785    -2.0158203    -0.7413556
H           2.5088947    -0.8057044    -2.0019885
H          -0.4600568     1.3827382     2.0168772
H           6.7830910     1.2290404     1.4733666
H           5.9261117    -0.9890699     2.2066888
H           1.7718361     0.5779215     1.3289027
H           3.9371431    -1.9754777     1.1121460
H           3.6360223     1.4572602    -1.4496396
H           5.6276767     2.4461838    -0.3643393
25
001_C13H12_0-3-4-10 (180,) energy =    -502.6142937
C          -0.0988410    -0.7761067    -1.1644814
C          -1.3649782    -0.4005523    -0.7206993
C          -1.4984236     0.4388116     0.3886848
C           1.0600624    -0.3247536    -0.5142669
C           2.4215021    -0.7706664    -1.0474920
C          -0.3546610     0.8934783     1.0425884
C           5.8826825     0.7211221     1.0848832
C           5.2901518    -0.4848166     1.4639264
C           0.9143606     0.5147302     0.5946973
C           4.1765176    -0.9645266     0.7730577
C           3.6353586    -0.2520888    -0.3055584
C           4.2401807     0.9569314    -0.6745624
C           5.3540070     1.4417846     0.0124629
H          -0.0044544    -1.4302393    -2.0295173
H          -2.2485420    -0.7626940    -1.2403465
H          -2.4846223     0.7336232     0.7374023
H           2.4464741    -1.8689326    -1.0507922
H           2.4922256    -0.4717658    -2.1022469
H          -0.4445775     1.5468904     1.9067906
H           6.7521500     1.0947740     1.6191156
H           5.6970276    -1.0550534     2.2950813
H           1.7965270     0.8763477     1.1135354
H           3.7207130    -1.9060386     1.0719437
H           3.8342957     1.5221154    -1.5108388
H           5.8107557     2.3797510    -0.2927225
