25
001_C13H12_3-4-10-9 (-165,) energy =    -502.6145060
C           0.2861245     0.9127042     0.8410350
C          -0.9179291     1.1230257     0.1651717
C          -1.3495434     0.2080906    -0.7954828
C           1.0776333    -0.2102336     0.5705134
C           2.3861833    -0.4373805     1.2993260
C          -0.5696598    -0.9165855    -1.0756884
C           6.0557921     0.6149399    -0.7724368
C           6.0811026    -0.2046735     0.3585255
C           0.6321405    -1.1207751    -0.3985482
C           4.8911173    -0.5431712     1.0005124
C           3.6554255    -0.0733903     0.5313234
C           3.6432406     0.7481508    -0.6013609
C           4.8338213     1.0886997    -1.2485629
H           0.6148601     1.6280843     1.5918704
H          -1.5187355     1.9997860     0.3928794
H          -2.2876050     0.3675098    -1.3204951
H           2.3725421     0.1356890     2.2370763
H           2.4556919    -1.4913774     1.5994677
H          -0.8993921    -1.6368055    -1.8200939
H           6.9809278     0.8789327    -1.2778817
H           7.0267906    -0.5832230     0.7383576
H           1.2352626    -1.9980828    -0.6220571
H           4.9186302    -1.1847279     1.8794224
H           2.6979045     1.1214143    -0.9831589
H           4.8021660     1.7261198    -2.1286631
25
001_C13H12_3-4-10-9 (-150,) energy =    -502.6149221
C           0.1868063     0.9154378     0.8602245
C          -1.0150871     1.0237674     0.1556868
C          -1.3407411     0.0836906    -0.8213534
C           1.0811285    -0.1295431     0.6015850
C           2.3833554    -0.2541957     1.3692674
C          -0.4556382    -0.9641363    -1.0897044
C           6.0482107     0.5060614    -0.8290721
C           6.0284705    -0.4096199     0.2242097
C           0.7427748    -1.0671924    -0.3856122
C           4.8396738    -0.6607728     0.9101521
C           3.6518842    -0.0046565     0.5604802
C           3.6849011     0.9123559    -0.4980484
C           4.8716407     1.1658996    -1.1875147
H           0.4317256     1.6504057     1.6240955
H          -1.6958706     1.8426269     0.3736920
H          -2.2757061     0.1641998    -1.3694726
H           2.3611185     0.4474412     2.2150864
H           2.4489760    -1.2546625     1.8167604
H          -0.7010134    -1.7029254    -1.8483753
H           6.9716095     0.7011401    -1.3679127
H           6.9372694    -0.9332633     0.5099744
H           1.4289228    -1.8826764    -0.6030868
H           4.8320929    -1.3783420     1.7283178
H           2.7730101     1.4264560    -0.7883440
H           4.8751076     1.8793515    -2.0077817
25
001_C13H12_3-4-10-9 (-135,) energy =    -502.6152331
C           0.1051531     0.9148888     0.8740163
C          -1.0933345     0.9240851     0.1553837
C          -1.3284736    -0.0404945    -0.8234929
C           1.0848270    -0.0535965     0.6282822
C           2.3803036    -0.0759899     1.4213010
C          -0.3571098    -1.0123533    -1.0797117
C           6.0266349     0.4079120    -0.8791814
C           5.9335562    -0.5891832     0.0915765
C           0.8371400    -1.0164501    -0.3615495
C           4.7518954    -0.7503148     0.8185504
C           3.6468222     0.0783519     0.5908499
C           3.7520187     1.0755768    -0.3893225
C           4.9299344     1.2401350    -1.1169449
H           0.2800846     1.6687211     1.6387817
H          -1.8406818     1.6857531     0.3626012
H          -2.2595660    -0.0367640    -1.3839499
H           2.3444890     0.7234033     2.1742157
H           2.4459930    -1.0150724     1.9865542
H          -0.5312159    -1.7682841    -1.8412456
H           6.9437140     0.5347706    -1.4483646
H           6.7784617    -1.2458038     0.2830897
H           1.5918411    -1.7707835    -0.5716903
H           4.6871812    -1.5306942     1.5740296
H           2.9002006     1.7213230    -0.5870036
H           4.9914184     2.0187340    -1.8730954
25
001_C13H12_3-4-10-9 (-120,) energy =    -502.6152919
C           0.0851520     0.9373513     0.8190618
C          -1.1025367     0.8741917     0.0856463
C          -1.3000496    -0.1542339    -0.8347819
C           1.0904144    -0.0207168     0.6463042
C           2.3765358     0.0410087     1.4559398
C          -0.3029157    -1.1164410    -1.0176499
C           5.9910140     0.3710913    -0.9158341
C           5.8078798    -0.7204528    -0.0680271
C           0.8806148    -1.0482166    -0.2851165
C           4.6401370    -0.8258375     0.6921132
C           3.6414921     0.1517270     0.6188370
C           3.8364007     1.2424991    -0.2411821
C           4.9999750     1.3531291    -0.9999854
H           0.2308972     1.7401570     1.5388300
H          -1.8703249     1.6289883     0.2355154
H          -2.2223702    -0.2072391    -1.4070952
H           2.3182952     0.8941365     2.1443894
H           2.4516759    -0.8537566     2.0877051
H          -0.4481366    -1.9212703    -1.7337908
H           6.8977891     0.4577051    -1.5085220
H           6.5710110    -1.4912183     0.0044498
H           1.6561847    -1.7947088    -0.4399811
H           4.5051361    -1.6779594     1.3550463
H           3.0650474     2.0051941    -0.3192485
H           5.1344948     2.2067700    -1.6594529
25
001_C13H12_3-4-10-9 (-105,) energy =    -502.6150760
C           0.0672154    -0.4509421    -1.0987056
C          -1.0569090    -0.9495774    -0.4363155
C          -1.2045456    -0.7511985     0.9361361
C           1.0588237     0.2533478    -0.4058632
C           2.2635438     0.8217434    -1.1461439
C          -0.2199162    -0.0526439     1.6393859
C           6.0714974    -0.1407019     0.6875463
C           5.5481260     1.1472020     0.7970323
C           0.9009099     0.4424604     0.9743550
C           4.3241681     1.4590227     0.1995078
C           3.6045635     0.4932255    -0.5138701
C           4.1408931    -0.7986073    -0.6137151
C           5.3627529    -1.1140521    -0.0218728
H           0.1746176    -0.6093619    -2.1697887
H          -1.8138918    -1.4950258    -0.9941448
H          -2.0768725    -1.1392008     1.4553377
H           2.2445650     0.4539993    -2.1794291
H           2.1621980     1.9138193    -1.2110071
H          -0.3237607     0.1043743     2.7100520
H           7.0245903    -0.3856371     1.1486594
H           6.0920172     1.9129728     1.3441952
H           1.6679669     0.9734517     1.5323576
H           3.9268318     2.4686667     0.2809796
H           3.5912556    -1.5629723    -1.1586333
H           5.7636009    -2.1202458    -0.1142736
25
001_C13H12_3-4-10-9 (-90,) energy =    -502.6143417
C           0.0585750    -0.5044635    -1.0612579
C          -1.0769643    -0.9343944    -0.3715105
C          -1.2240501    -0.6406819     0.9838594
C           1.0635083     0.2263240    -0.4156034
C           2.2757920     0.7151353    -1.2031645
C          -0.2266169     0.0837583     1.6404737
C           6.0729107    -0.1370057     0.7060882
C           5.4222378     1.0727364     0.9509436
C           0.9058092     0.5109541     0.9476773
C           4.2060743     1.3530329     0.3248655
C           3.6193590     0.4336426    -0.5547732
C           4.2828804    -0.7781891    -0.7896129
C           5.4991734    -1.0620251    -0.1687639
H           0.1650017    -0.7383237    -2.1185179
H          -1.8430172    -1.5014721    -0.8943022
H          -2.1050120    -0.9750402     1.5253008
H           2.2493653     0.2628870    -2.2012005
H           2.1803023     1.7992154    -1.3586676
H          -0.3285442     0.3147168     2.6978550
H           7.0213431    -0.3559999     1.1892663
H           5.8627677     1.8026167     1.6253330
H           1.6803389     1.0608576     1.4750948
H           3.7146185     2.3062791     0.5083558
H           3.8395656    -1.5060015    -1.4657484
H           5.9999634    -2.0057828    -0.3690498
25
001_C13H12_3-4-10-9 (-75,) energy =    -502.6150566
C          -0.0898807     0.6869332    -0.8420621
C          -1.2558295     0.6268529    -0.0754244
C          -1.3219747    -0.2197999     1.0308401
C           1.0255172    -0.0955524    -0.5208188
C           2.2788063    -0.0461834    -1.3866760
C          -0.2140864    -1.0030948     1.3637385
C           5.9764538     0.4435899     0.8212929
C           5.1093774     1.5255300     0.6465154
C           0.9480579    -0.9393916     0.5960512
C           3.9215730     1.3636942    -0.0646130
C           3.5754575     0.1209586    -0.6143833
C           4.4553093    -0.9533269    -0.4374294
C           5.6458839    -0.7969931     0.2769567
H          -0.0465029     1.3497670    -1.7038406
H          -2.1094689     1.2446500    -0.3425455
H          -2.2267134    -0.2678416     1.6310182
H           2.3392228    -0.9680059    -1.9814485
H           2.1736361     0.7732202    -2.1082674
H          -0.2539825    -1.6636226     2.2262302
H           6.9033881     0.5695095     1.3744047
H           5.3609150     2.4975273     1.0631393
H           1.8091972    -1.5432890     0.8706223
H           3.2491452     2.2090686    -0.1930302
H           4.2095449    -1.9213247    -0.8692430
H           6.3153072    -1.6442302     0.4021021
25
001_C13H12_3-4-10-9 (-60,) energy =    -502.6152859
C           0.0024905     0.7458698    -0.8084895
C          -1.1577124     0.8056798    -0.0320106
C          -1.3207133    -0.0560003     1.0519126
C           1.0150574    -0.1739112    -0.5139935
C           2.2725887    -0.2491977    -1.3659158
C          -0.3156116    -0.9781723     1.3566430
C           5.9618744     0.5312560     0.7774354
C           4.9550678     1.4995679     0.7271151
C           0.8406245    -1.0332971     0.5808357
C           3.7676463     1.2448056     0.0436849
C           3.5625947     0.0186448    -0.6058102
C           4.5771058    -0.9433070    -0.5479016
C           5.7685169    -0.6924221     0.1379553
H           0.1201197     1.4184752    -1.6556486
H          -1.9329995     1.5271516    -0.2769785
H          -2.2226544    -0.0110627     1.6564908
H           2.3395662    -1.2412719    -1.8312880
H           2.1799522     0.4678153    -2.1920433
H          -0.4331381    -1.6538202     2.2001031
H           6.8871513     0.7308017     1.3114125
H           5.0962853     2.4564784     1.2231423
H           1.6236189    -1.7461969     0.8287662
H           2.9852359     1.9997570     0.0181214
H           4.4354723    -1.8989957    -1.0482905
H           6.5431245    -1.4543921     0.1703090
25
001_C13H12_3-4-10-9 (-45,) energy =    -502.6152071
C           0.0186921     0.7096860    -0.8614170
C          -1.1541836     0.8459921    -0.1139723
C          -1.3516815     0.0629802     1.0225997
C           1.0087365    -0.2059637    -0.4880104
C           2.2758212    -0.3659182    -1.3100421
C          -0.3698432    -0.8544881     1.4073979
C           5.9907782     0.5604175     0.7314400
C           4.8814974     1.3969884     0.8766465
C           0.7986907    -0.9853432     0.6595044
C           3.6821433     1.0939099     0.2331283
C           3.5690713    -0.0487048    -0.5715668
C           4.6859166    -0.8823781    -0.7054437
C           5.8885290    -0.5820627    -0.0621497
H           0.1650362     1.3210029    -1.7494432
H          -1.9104500     1.5634591    -0.4220875
H          -2.2627040     0.1652590     1.6062165
H           2.3359034    -1.3934528    -1.6922325
H           2.2014352     0.2780507    -2.1973298
H          -0.5158032    -1.4688871     2.2922099
H           6.9241861     0.7958206     1.2358628
H           4.9493785     2.2877274     1.4960922
H           1.5620921    -1.6956407     0.9685275
H           2.8211778     1.7451725     0.3600052
H           4.6139085    -1.7764337    -1.3214601
H           6.7425852    -1.2443861    -0.1787544
25
001_C13H12_3-4-10-9 (-30,) energy =    -502.6148631
C           0.0982010     0.7136183    -0.8506821
C          -1.0788943     0.9459500    -0.1344708
C          -1.3675999     0.1889472     1.0004851
C           1.0036021    -0.2743464    -0.4467999
C           2.2790348    -0.5329237    -1.2253139
C          -0.4714410    -0.8001309     1.4150620
C           6.0069145     0.6460252     0.6643135
C           4.8276327     1.3292919     0.9642550
C           0.7021068    -1.0269277     0.6981452
C           3.6215767     0.9480815     0.3735068
C           3.5729342    -0.1204702    -0.5306159
C           4.7627110    -0.8028872    -0.8188214
C           5.9700316    -0.4241335    -0.2313389
H           0.3147678     1.3051040    -1.7377556
H          -1.7691794     1.7170823    -0.4667261
H          -2.2833845     0.3656371     1.5583059
H           2.3450641    -1.6004488    -1.4732976
H           2.2138737    -0.0091719    -2.1895659
H          -0.6887809    -1.3965229     2.2974927
H           6.9447704     0.9411037     1.1274140
H           4.8433761     2.1611617     1.6639506
H           1.3972864    -1.7954539     1.0287051
H           2.7084963     1.4824190     0.6198009
H           4.7420230    -1.6415059    -1.5121391
H           6.8800547    -0.9694963    -0.4684527
25
001_C13H12_3-4-10-9 (-15,) energy =    -502.6144721
C           0.1964186     0.7146483    -0.8334828
C          -0.9853871     1.0369602    -0.1626507
C          -1.3795418     0.2990288     0.9538226
C           1.0029253    -0.3460024    -0.4028234
C           2.2875472    -0.6932151    -1.1265526
C          -0.5841565    -0.7615440     1.3942849
C           6.0119333     0.7428936     0.5901825
C           4.7989965     1.2684404     1.0333661
C           0.5955023    -1.0784448     0.7214404
C           3.5921516     0.8104627     0.4979289
C           3.5782274    -0.1789420    -0.4911831
C           4.8048011    -0.7032272    -0.9256314
C           6.0103574    -0.2480390    -0.3946813
H           0.4957560     1.2918153    -1.7057672
H          -1.5985271     1.8621262    -0.5157380
H          -2.3004633     0.5454305     1.4755666
H           2.3641433    -1.7841696    -1.2251645
H           2.2293617    -0.3081284    -2.1543436
H          -0.8847418    -1.3446200     2.2610149
H           6.9499382     1.0978305     1.0088202
H           4.7867573     2.0375556     1.8016007
H           1.2106076    -1.9051617     1.0701600
H           2.6544611     1.2255346     0.8544039
H           4.8126104    -1.4786445    -1.6895327
H           6.9486108    -0.6701008    -0.7459637
25
001_C13H12_3-4-10-9 (0,) energy =    -502.6142938
C           0.3013201     0.6994762    -0.8096292
C          -0.8874140     1.0984173    -0.1969204
C          -1.3914685     0.3806176     0.8892287
C           1.0075017    -0.4207112    -0.3510631
C           2.3017751    -0.8459329    -1.0120207
C          -0.6975660    -0.7370780     1.3563218
C           6.0055895     0.8386979     0.5154609
C           4.7921824     1.2042590     1.0955487
C           0.4907825    -1.1319727     0.7401722
C           3.5909039     0.6725518     0.6173322
C           3.5837668    -0.2329372    -0.4484458
C           4.8118255    -0.5933661    -1.0242142
C           6.0108474    -0.0654436    -0.5501707
H           0.6869630     1.2623259    -1.6569978
H          -1.4219669     1.9678109    -0.5709595
H          -2.3188920     0.6876061     1.3653431
H           2.3898201    -1.9394810    -0.9551205
H           2.2504488    -0.6104217    -2.0838096
H          -1.0833560    -1.3053430     2.1987818
H           6.9391200     1.2523492     0.8876236
H           4.7744215     1.9066224     1.9251611
H           1.0250089    -2.0053135     1.1081769
H           2.6531253     0.9659574     1.0784503
H           4.8252947    -1.2970171    -1.8547463
H           6.9501401    -0.3592919    -1.0119626
25
001_C13H12_3-4-10-9 (15,) energy =    -502.6144712
C           0.4081275     0.6830308    -0.7761319
C          -0.7872277     1.1500522    -0.2304533
C          -1.3963973     0.4574469     0.8186340
C           1.0165306    -0.4823683    -0.2880499
C           2.3171763    -0.9818105    -0.8825114
C          -0.8016905    -0.7028860     1.3150194
C           5.9923292     0.9251575     0.4356636
C           4.8132878     1.1307085     1.1508377
C           0.3948523    -1.1664793     0.7638432
C           3.6214932     0.5317407     0.7340093
C           3.5885916    -0.2839396    -0.4022483
C           4.7806424    -0.4790185    -1.1156167
C           5.9716942     0.1155296    -0.7027531
H           0.8779255     1.2273552    -1.5924847
H          -1.2452429     2.0529663    -0.6260915
H          -2.3292974     0.8186425     1.2431700
H           2.4115470    -2.0568762    -0.6739918
H           2.2711344    -0.8973281    -1.9763152
H          -1.2693353    -1.2510270     2.1288811
H           6.9186779     1.3929122     0.7583979
H           4.8156275     1.7612687     2.0364465
H           0.8513792    -2.0741582     1.1528443
H           2.7093793     0.7024883     1.2974459
H           4.7727429    -1.1048645    -2.0061813
H           6.8829795    -0.0489803    -1.2722814
25
001_C13H12_3-4-10-9 (30,) energy =    -502.6148621
C           0.5155658     0.6552247    -0.7362504
C          -0.6911113     1.1810365    -0.2778880
C          -1.4170274     0.5147663     0.7132835
C           1.0203177    -0.5463289    -0.2170086
C           2.3300823    -1.1153091    -0.7274411
C          -0.9250452    -0.6792278     1.2394210
C           5.9563676     1.0099198     0.3662698
C           4.8415571     1.0562298     1.2044210
C           0.2843364    -1.2034888     0.7756983
C           3.6659570     0.3892185     0.8550461
C           3.5847408    -0.3400340    -0.3378554
C           4.7086066    -0.3739025    -1.1746632
C           5.8852167     0.2906184    -0.8280507
H           1.0773708     1.1813205    -1.5048806
H          -1.0674665     2.1114277    -0.6954004
H          -2.3584853     0.9239211     1.0700877
H           2.4280525    -2.1488836    -0.3663227
H           2.2943234    -1.1873958    -1.8224240
H          -1.4815368    -1.2068013     2.0098174
H           6.8696205     1.5326581     0.6380151
H           4.8835579     1.6171385     2.1346956
H           0.6598057    -2.1378064     1.1876873
H           2.8023650     0.4388502     1.5120393
H           4.6600910    -0.9280680    -2.1100380
H           6.7435267     0.2516060    -1.4940600
25
001_C13H12_3-4-10-9 (45,) energy =    -502.6152087
C           0.6179653     0.6254874    -0.7152580
C          -0.5958910     1.2001650    -0.3435199
C          -1.4165063     0.5647503     0.5928133
C           1.0357992    -0.5947268    -0.1630639
C           2.3518079    -1.2235940    -0.5867239
C          -1.0116305    -0.6467944     1.1514185
C           5.9228910     1.0799912     0.2897754
C           4.9131074     0.9583833     1.2473192
C           0.2058006    -1.2199201     0.7741771
C           3.7582930     0.2304550     0.9627861
C           3.5914983    -0.3937517    -0.2816218
C           4.6084442    -0.2603712    -1.2346368
C           5.7663443     0.4681623    -0.9539167
H           1.2553241     1.1288287    -1.4386158
H          -0.9031427     2.1451092    -0.7843867
H          -2.3630794     1.0126945     0.8832921
H           2.4460783    -2.2031399    -0.0976883
H           2.3271062    -1.4301016    -1.6647656
H          -1.6411548    -1.1494816     1.8811999
H           6.8213819     1.6500176     0.5108628
H           5.0235690     1.4346503     2.2182724
H           0.5133872    -2.1674959     1.2114831
H           2.9728552     0.1499546     1.7098262
H           4.4929742    -0.7329756    -2.2079294
H           6.5423907     0.5601242    -1.7095674
25
001_C13H12_3-4-10-9 (60,) energy =    -502.6153010
C           0.7053652     0.5984799    -0.7054497
C          -0.5166700     1.2080240    -0.4269670
C          -1.4167014     0.6080835     0.4580746
C           1.0518437    -0.6229227    -0.1094289
C           2.3751162    -1.2990494    -0.4354884
C          -1.0822366    -0.6044536     1.0597857
C           5.8910470     1.1473268     0.2389106
C           5.0205273     0.8566181     1.2930485
C           0.1433572    -1.2127671     0.7766135
C           3.8873706     0.0759676     1.0721888
C           3.6024013    -0.4323460    -0.2036133
C           4.4816017    -0.1334142    -1.2504928
C           5.6181648     0.6503603    -1.0349224
H           1.4049446     1.0766677    -1.3868692
H          -0.7672944     2.1542528    -0.8997885
H          -2.3688233     1.0842609     0.6766836
H           2.4570568    -2.2152491     0.1638232
H           2.3681982    -1.6249116    -1.4842822
H          -1.7728060    -1.0795263     1.7519421
H           6.7740878     1.7569220     0.4111632
H           5.2250733     1.2403284     2.2893526
H           0.3960831    -2.1600374     1.2484270
H           3.2095068    -0.1383030     1.8952031
H           4.2768373    -0.5217008    -2.2459963
H           6.2873953     0.8706222    -1.8627528
25
001_C13H12_3-4-10-9 (75,) energy =    -502.6150619
C           0.7703124     0.5811540    -0.7080700
C          -0.4601247     1.2080790    -0.5161908
C          -1.4218130     0.6316172     0.3173402
C           1.0631846    -0.6349079    -0.0748100
C           2.3920679    -1.3441367    -0.3064961
C          -1.1408502    -0.5757238     0.9563072
C           5.8860467     1.1736294     0.1833343
C           5.1771531     0.7240111     1.3005970
C           0.0928515    -1.2006743     0.7605391
C           4.0543859    -0.0858138     1.1383247
C           3.6169152    -0.4621496    -0.1397278
C           4.3392401    -0.0101578    -1.2503628
C           5.4638155     0.8040289    -1.0932725
H           1.5170084     1.0439367    -1.3483703
H          -0.6678372     2.1507935    -1.0161129
H          -2.3798558     1.1218573     0.4686230
H           2.4581791    -2.1970763     0.3800016
H           2.3991325    -1.7689235    -1.3196956
H          -1.8790798    -1.0324706     1.6106176
H           6.7624126     1.8038240     0.3091525
H           5.5016638     1.0030635     2.2998263
H           0.3040769    -2.1427801     1.2622402
H           3.5045603    -0.4285789     2.0121170
H           4.0225517    -0.3041889    -2.2489348
H           6.0108261     1.1435144    -1.9691369
25
001_C13H12_3-4-10-9 (90,) energy =    -502.6143417
C           0.8724415     0.6947206     0.7985316
C          -0.3642785     1.3123051     0.6143566
C          -1.3716024     0.6696107    -0.1089158
C           1.1272725    -0.5771710     0.2676801
C           2.4599946    -1.2873548     0.4878966
C          -1.1300894    -0.5943403    -0.6465353
C           5.9240335     1.1548781    -0.4226189
C           5.4052997     1.1312951     0.8724494
C           0.1100871    -1.2081941    -0.4588727
C           4.2981648     0.3340569     1.1696240
C           3.6906058    -0.4525324     0.1820184
C           4.2213878    -0.4170466    -1.1144795
C           5.3286418     0.3754415    -1.4166847
H           1.6519217     1.2123547     1.3507183
H          -0.5403390     2.2995366     1.0341220
H          -2.3344387     1.1522185    -0.2539996
H           2.5115623    -1.6206473     1.5341384
H           2.4755977    -2.1985220    -0.1211548
H          -1.9037123    -1.1037476    -1.2155389
H           6.7877978     1.7719505    -0.6551451
H           5.8649507     1.7293455     1.6551700
H           0.2901725    -2.1943501    -0.8817816
H           3.9117685     0.3087188     2.1864327
H           3.7596195    -1.0177303    -1.8950486
H           5.7272651     0.3836129    -2.4279490
25
001_C13H12_3-4-10-9 (105,) energy =    -502.6150813
C           0.8503911     0.7288003     0.7518037
C          -0.3792119     1.3311004     0.4894782
C          -1.3571417     0.6463230    -0.2365078
C           1.1267904    -0.5688262     0.2984386
C           2.4561770    -1.2465799     0.6080855
C          -1.0941580    -0.6434362    -0.6969066
C           5.9245946     1.1329129    -0.4369286
C           5.5538877     0.9841873     0.8990910
C           0.1393479    -1.2421629    -0.4299504
C           4.4399836     0.2110247     1.2363374
C           3.6805066    -0.4240277     0.2467529
C           4.0617672    -0.2643287    -1.0933491
C           5.1736880     0.5039955    -1.4337517
H           1.6100503     1.2740955     1.3062013
H          -0.5738398     2.3380968     0.8498660
H          -2.3148363     1.1167569    -0.4427607
H           2.4956296    -1.4864037     1.6793725
H           2.4904766    -2.2077778     0.0805250
H          -1.8455594    -1.1851307    -1.2658813
H           6.7921311     1.7316210    -0.7014013
H           6.1323428     1.4665957     1.6828292
H           0.3370120    -2.2492066    -0.7912966
H           4.1631442     0.0915342     2.2818343
H           3.4778325    -0.7457216    -1.8747575
H           5.4558543     0.6123978    -2.4779087
25
001_C13H12_3-4-10-9 (120,) energy =    -502.6152899
C           0.7625347     0.7468604     0.7867955
C          -0.4572267     1.3195505     0.4315638
C          -1.3551187     0.6133515    -0.3738059
C           1.1088758    -0.5400982     0.3496084
C           2.4350780    -1.1646320     0.7554524
C          -1.0214498    -0.6655935    -0.8176072
C           5.9355081     1.0645064    -0.5012131
C           5.7021408     0.8315480     0.8534309
C           0.2020460    -1.2363550    -0.4572105
C           4.5717216     0.1158199     1.2566451
C           3.6599410    -0.3772225     0.3166575
C           3.9037850    -0.1329573    -1.0429336
C           5.0307751     0.5787282    -1.4494434
H           1.4612910     1.3053433     1.4052679
H          -0.7078964     2.3176515     0.7818726
H          -2.3062962     1.0590044    -0.6525263
H           2.4644650    -1.2793451     1.8469776
H           2.4860434    -2.1806238     0.3426823
H          -1.7119111    -1.2230673    -1.4453987
H           6.8138608     1.6204990    -0.8181027
H           6.3980461     1.2057844     1.5999587
H           0.4533330    -2.2366155    -0.8038596
H           4.3987227    -0.0661365     2.3153306
H           3.1988074    -0.4993642    -1.7855811
H           5.2038282     0.7564104    -2.5078276
25
001_C13H12_3-4-10-9 (135,) energy =    -502.6152329
C           0.7185641     0.7975425     0.7176729
C          -0.5065783     1.3187577     0.3061084
C          -1.3760522     0.5444819    -0.4673225
C           1.0991039    -0.5068685     0.3686013
C           2.4269057    -1.0762166     0.8380901
C          -1.0083387    -0.7522889    -0.8238451
C           5.9789538     1.0164920    -0.5117156
C           5.8492397     0.6382824     0.8244891
C           0.2206133    -1.2711100    -0.4074623
C           4.6965946    -0.0217364     1.2562619
C           3.6576381    -0.3153877     0.3650984
C           3.7985832     0.0717753    -0.9752314
C           4.9480069     0.7304062    -1.4100944
H           1.3936231     1.4083109     1.3126566
H          -0.7844527     2.3309991     0.5886594
H          -2.3312289     0.9510888    -0.7888247
H           2.4403166    -1.1137546     1.9354360
H           2.4986933    -2.1201495     0.5031063
H          -1.6756318    -1.3634286    -1.4262034
H           6.8734308     1.5321909    -0.8509336
H           6.6425566     0.8587430     1.5342370
H           0.4992866    -2.2851017    -0.6865424
H           4.6027743    -0.3134679     2.3003132
H           2.9972188    -0.1387479    -1.6789342
H           5.0384412     1.0231392    -2.4531033
25
001_C13H12_3-4-10-9 (150,) energy =    -502.6149222
C           0.6246691     0.8337967     0.7517148
C          -0.5965190     1.2956894     0.2640375
C          -1.3727555     0.4835919    -0.5673965
C           1.0935882    -0.4467774     0.4223086
C           2.4198967    -0.9434411     0.9651019
C          -0.9169947    -0.7903728    -0.9046627
C           6.0141028     0.9366065    -0.5802892
C           5.9718521     0.4514184     0.7277352
C           0.3072556    -1.2496639    -0.4119345
C           4.8038260    -0.1324194     1.2193841
C           3.6597450    -0.2440713     0.4180090
C           3.7142145     0.2462678    -0.8931706
C           4.8805512     0.8317285    -1.3879701
H           1.2262653     1.4724061     1.3946799
H          -0.9444396     2.2896442     0.5335198
H          -2.3254307     0.8427027    -0.9475120
H           2.4243903    -0.8507193     2.0591078
H           2.5030099    -2.0198814     0.7588633
H          -1.5130404    -1.4305566    -1.5499755
H           6.9209236     1.3952934    -0.9654757
H           6.8463362     0.5310728     1.3685958
H           0.6545993    -2.2464302    -0.6755543
H           4.7780913    -0.5054345     2.2414331
H           2.8354561     0.1751339    -1.5278973
H           4.9017433     1.2084927    -2.4074912
25
001_C13H12_3-4-10-9 (165,) energy =    -502.6145071
C           0.5096256     0.8621601     0.7836531
C          -0.7047306     1.2516648     0.2196898
C          -1.3711241     0.4018478    -0.6665923
C           1.0810180    -0.3811999     0.4765672
C           2.4019829    -0.7964663     1.0911055
C          -0.8133123    -0.8372967    -0.9819885
C           6.0331424     0.8376502    -0.6467095
C           6.0479672     0.2403133     0.6160852
C           0.4027581    -1.2229455    -0.4133598
C           4.8699560    -0.2648891     1.1636330
C           3.6553236    -0.1866135     0.4662493
C           3.6531990     0.4122584    -0.7983337
C           4.8319921     0.9210340    -1.3498561
H           1.0238129     1.5291404     1.4722382
H          -1.1331491     2.2176986     0.4742392
H          -2.3188608     0.7030689    -1.1048733
H           2.3967240    -0.5516064     2.1615537
H           2.4868385    -1.8910641     1.0397932
H          -1.3248621    -1.5074899    -1.6680441
H           6.9491553     1.2353862    -1.0754479
H           6.9769370     0.1712939     1.1765357
H           0.8300637    -2.1923830    -0.6607433
H           4.8899647    -0.7261211     2.1493830
H           2.7240863     0.4854853    -1.3552276
H           4.8072405     1.3847775    -2.3328123
25
001_C13H12_3-4-10-9 (180,) energy =    -502.6142938
C           0.3978109     0.8902132     0.8155388
C          -0.8099979     1.1942846     0.1859787
C          -1.3569775     0.3084612    -0.7441895
C           1.0803698    -0.2998587     0.5297851
C           2.3952706    -0.6228569     1.2077391
C          -0.6875855    -0.8806511    -1.0388680
C           6.0505554     0.7314428    -0.7142527
C           6.0897570     0.0218264     0.4890472
C           0.5199902    -1.1793850    -0.4061680
C           4.9057037    -0.4028812     1.0879757
C           3.6593359    -0.1308392     0.5030298
C           3.6322003     0.5798752    -0.7010932
C           4.8185413     1.0074316    -1.3046053
H           0.8174461     1.5838023     1.5410461
H          -1.3254777     2.1208607     0.4252869
H          -2.2992421     0.5414246    -1.2329423
H           2.3848357    -0.2075741     2.2247324
H           2.4742337    -1.7111188     1.3352736
H          -1.1071772    -1.5787962    -1.7586326
H           6.9721000     1.0643840    -1.1843703
H           7.0436279    -0.2005676     0.9607941
H           1.0353021    -2.1088219    -0.6388194
H           4.9455224    -0.9551672     2.0252462
H           2.6798295     0.8018275    -1.1722025
H           4.7744457     1.5585707    -2.2406402
