19
100_C8H7N3O_15-0-7-8 (-165,) energy =    -548.5185274
N           3.0392001    -1.4689281    -1.2576517
H           3.3478726    -2.3294711    -1.6870960
C           5.8799877     0.6031650     0.9125414
H           6.5898270     1.1765844     1.4996591
C           4.5382500     0.9707869     0.8593615
H           4.1816287     1.8410283     1.4080868
N           3.6041477     0.3115150     0.1632860
C           3.9951478    -0.7574271    -0.5292574
C           5.3273297    -1.2177046    -0.5557864
H           5.6032535    -2.0899576    -1.1429829
C           6.2733933    -0.5239124     0.1838051
H           7.3088365    -0.8536824     0.1858165
C          -0.1223762    -0.2505131    -2.0582644
H          -0.9084192     0.4913955    -2.0667164
N           1.0966537     0.0019776    -1.4295981
C           1.7674613    -1.0915397    -1.6224942
O           1.1094654    -2.0595776    -2.3264361
C          -0.1212567    -1.4873692    -2.6023508
H          -0.8130301    -2.0911866    -3.1659066
19
100_C8H7N3O_15-0-7-8 (-150,) energy =    -548.5178583
N           3.0098054    -1.5945502    -1.1324163
H           3.3240663    -2.4584479    -1.5520940
C           5.8794832     0.5997358     0.8792057
H           6.5936413     1.2007400     1.4326569
C           4.5147575     0.8711057     0.9487796
H           4.1460136     1.6924081     1.5611402
N           3.5754061     0.1687901     0.3055091
C           3.9825077    -0.8399213    -0.4649048
C           5.3354875    -1.1948969    -0.6232719
H           5.6221293    -2.0142727    -1.2773780
C           6.2896386    -0.4653733     0.0727420
H           7.3425476    -0.7158557    -0.0247775
C          -0.0024879    -0.2169009    -2.2053061
H          -0.7155890     0.5850933    -2.3342440
N           1.2165192     0.0006963    -1.5638745
C           1.7868670    -1.1637276    -1.5964411
O           1.0632919    -2.1478435    -2.2042950
C          -0.0992631    -1.5060140    -2.5989487
H          -0.8255826    -2.1096136    -3.1174677
19
100_C8H7N3O_15-0-7-8 (-135,) energy =    -548.5167287
N           2.9596000    -1.6956555    -0.9770480
H           3.2792202    -2.5642097    -1.3853441
C           5.8661982     0.6208179     0.8452966
H           6.5868057     1.2502515     1.3574207
C           4.4976158     0.7985303     1.0451576
H           4.1351561     1.5739354     1.7180713
N           3.5527278     0.0530213     0.4636161
C           3.9536623    -0.8998638    -0.3787708
C           5.3037316    -1.1516809    -0.6748246
H           5.5801478    -1.9220954    -1.3896416
C           6.2703509    -0.3846261    -0.0349248
H           7.3240294    -0.5577718    -0.2364937
C           0.1231934    -0.1790605    -2.3114168
H          -0.5087996     0.6663703    -2.5441968
N           1.3362514    -0.0096131    -1.6451535
C           1.7968120    -1.2179973    -1.5445206
O           1.0076435    -2.1872852    -2.0859129
C          -0.0776571    -1.4867063    -2.5875146
H          -0.8371911    -2.0711593    -3.0797083
19
100_C8H7N3O_15-0-7-8 (-120,) energy =    -548.5151422
N           2.8958983    -1.7797465    -0.8251189
H           3.2072539    -2.6697464    -1.1942381
C           5.8536038     0.6286493     0.7987673
H           6.5861552     1.2793841     1.2656216
C           4.5037636     0.7192649     1.1397130
H           4.1689608     1.4477109     1.8763048
N           3.5490182    -0.0598325     0.6223496
C           3.9166202    -0.9560592    -0.2943111
C           5.2385588    -1.1118526    -0.7360613
H           5.4817012    -1.8340443    -1.5105072
C           6.2231302    -0.3150680    -0.1599134
H           7.2590852    -0.4157665    -0.4720489
C           0.2503108    -0.1672033    -2.4145825
H          -0.3047485     0.7036554    -2.7337299
N           1.4413954    -0.0419329    -1.7001359
C           1.8029428    -1.2714431    -1.4982483
O           0.9702241    -2.2147202    -2.0159770
C          -0.0349871    -1.4726036    -2.6165891
H          -0.8120743    -2.0326104    -3.1097913
19
100_C8H7N3O_15-0-7-8 (-105,) energy =    -548.5150803
N           2.9881917    -1.9085452    -0.8981197
H           2.6541543    -2.5557118    -0.1883449
C           5.8182972     0.6449991     0.7720125
H           6.5254077     1.3110450     1.2568488
C           4.5619541     0.4199095     1.3354479
H           4.2792855     0.9030057     2.2689939
N           3.6408307    -0.3843524     0.7904570
C           3.9568745    -0.9928735    -0.3532541
C           5.1933364    -0.8637035    -0.9860988
H           5.3875842    -1.4119171    -1.9010492
C           6.1389001    -0.0149707    -0.4139146
H           7.1109499     0.1194877    -0.8801652
C           0.5862511    -0.2542577    -2.8023527
H           0.2344003     0.5614750    -3.4181219
N           1.8663618    -0.2423122    -2.2477647
C           1.9192095    -1.3590379    -1.5868099
O           0.7981705    -2.1215938    -1.6451538
C          -0.0637349    -1.3831712    -2.4436971
H          -1.0366790    -1.8113012    -2.6190257
19
100_C8H7N3O_15-0-7-8 (-90,) energy =    -548.5176319
N           2.9129462    -1.8715673    -0.7559286
H           2.5084828    -2.3904485     0.0200295
C           5.8612954     0.6208251     0.7801028
H           6.6072256     1.2622147     1.2390512
C           4.6883264     0.3033978     1.4623719
H           4.5086671     0.6861851     2.4652926
N           3.7236440    -0.4748884     0.9529042
C           3.9129546    -0.9648118    -0.2725462
C           5.0689633    -0.7484847    -1.0264326
H           5.1711791    -1.2107352    -2.0016396
C           6.0521645     0.0789924    -0.4923947
H           6.9610724     0.2822286    -1.0518071
C           0.6865118    -0.3463620    -2.9611237
H           0.4042071     0.4059697    -3.6840183
N           1.9401940    -0.3272903    -2.3488214
C           1.9062688    -1.3581931    -1.5597352
O           0.7522317    -2.0707327    -1.5849904
C          -0.0352991    -1.3935015    -2.5050896
H          -1.0210437    -1.7935003    -2.6751722
19
100_C8H7N3O_15-0-7-8 (-75,) energy =    -548.5209432
N           2.8225154    -1.8015369    -0.6308177
H           2.3710223    -2.2259069     0.1756614
C           5.9047060     0.5750071     0.8007629
H           6.6928074     1.1787977     1.2394995
C           4.8114748     0.1770667     1.5659067
H           4.7349910     0.4572197     2.6148613
N           3.8001091    -0.5598221     1.0850023
C           3.8595934    -0.9254836    -0.1964262
C           4.9332115    -0.6245830    -1.0422059
H           4.9342025    -0.9821983    -2.0651069
C           5.9610035     0.1605459    -0.5325562
H           6.8059423     0.4285099    -1.1608469
C           0.7663479    -0.4725580    -3.1105173
H           0.5526719     0.1887361    -3.9382793
N           1.9993734    -0.4398782    -2.4579984
C           1.8787511    -1.3492971    -1.5386307
O           0.6864316    -1.9953670    -1.5148809
C          -0.0299957    -1.4076770    -2.5477057
H          -1.0314412    -1.7735010    -2.7020333
19
100_C8H7N3O_15-0-7-8 (-60,) energy =    -548.5243735
N           2.7375833    -1.7026004    -0.5289447
H           2.2575747    -2.0696916     0.2879848
C           5.9553499     0.5263107     0.8187852
H           6.7837630     1.0867352     1.2401851
C           4.9288053     0.0590532     1.6350173
H           4.9444432     0.2420219     2.7079130
N           3.8740115    -0.6298016     1.1787023
C           3.8171984    -0.8753771    -0.1327731
C           4.8143880    -0.4926529    -1.0403199
H           4.7185620    -0.7405440    -2.0901724
C           5.8881156     0.2392076    -0.5475048
H           6.6754815     0.5669376    -1.2207821
C           0.8387849    -0.6084839    -3.2352636
H           0.6867484    -0.0521621    -4.1492901
N           2.0538838    -0.5580516    -2.5511023
C           1.8550657    -1.3291230    -1.5241843
O           0.6269979    -1.9019873    -1.4592139
C          -0.0247961    -1.4182991    -2.5844742
H          -1.0398514    -1.7497092    -2.7269024
19
100_C8H7N3O_15-0-7-8 (-45,) energy =    -548.5272443
N           2.6636731    -1.5795114    -0.4449442
H           2.1700387    -1.9122677     0.3770545
C           6.0206970     0.4766723     0.8176277
H           6.8879760     0.9898155     1.2204453
C           5.0467122    -0.0432554     1.6661574
H           5.1422658     0.0520435     2.7463363
N           3.9502464    -0.6795590     1.2356446
C           3.7932514    -0.8173194    -0.0851695
C           4.7243022    -0.3645299    -1.0322154
H           4.5427831    -0.5145458    -2.0887596
C           5.8454261     0.3066829    -0.5584764
H           6.5850208     0.6831725    -1.2599966
C           0.9001003    -0.7308397    -3.3218602
H           0.7957959    -0.2706634    -4.2941283
N           2.0932656    -0.6416659    -2.6040944
C           1.8382325    -1.2947409    -1.5086288
O           0.5906595    -1.8240681    -1.4293769
C          -0.0081516    -1.4445921    -2.6217227
H          -1.0268557    -1.7635397    -2.7663590
19
100_C8H7N3O_15-0-7-8 (-30,) energy =    -548.5292197
N           2.5854514    -1.4337495    -0.3785869
H           2.0871492    -1.7588752     0.4419696
C           6.0765838     0.4251159     0.8089919
H           6.9797147     0.8864489     1.1951704
C           5.1369496    -0.1300053     1.6744544
H           5.2950619    -0.1126223     2.7514586
N           4.0018013    -0.7082554     1.2664284
C           3.7661538    -0.7500335    -0.0509620
C           4.6492585    -0.2431562    -1.0176781
H           4.4016569    -0.3091624    -2.0691570
C           5.8155171     0.3611615    -0.5621439
H           6.5218123     0.7731390    -1.2780280
C           0.9470589    -0.8442154    -3.3875979
H           0.8823886    -0.4716814    -4.3999731
N           2.1127037    -0.6942919    -2.6357767
C           1.8140271    -1.2494548    -1.4968853
O           0.5599168    -1.7657214    -1.4193881
C           0.0091558    -1.4911539    -2.6624026
H          -1.0048767    -1.8197557    -2.8176855
19
100_C8H7N3O_15-0-7-8 (-15,) energy =    -548.5303034
N           2.5003530    -1.2759743    -0.3209088
H           2.0066939    -1.6225848     0.4922373
C           6.1169615     0.3594021     0.8075336
H           7.0528181     0.7633801     1.1796620
C           5.1957384    -0.2178880     1.6787443
H           5.4005421    -0.2741385     2.7465949
N           4.0247156    -0.7313463     1.2883417
C           3.7304877    -0.6830692    -0.0183653
C           4.5837908    -0.1354058    -0.9903784
H           4.2893299    -0.1259852    -2.0317311
C           5.7916163     0.3947623    -0.5505538
H           6.4784778     0.8314910    -1.2707287
C           0.9811558    -0.9379911    -3.4267137
H           0.9508508    -0.6398364    -4.4649930
N           2.1157133    -0.7181491    -2.6453215
C           1.7812351    -1.1962859    -1.4808081
O           0.5294274    -1.7210220    -1.4127176
C           0.0232158    -1.5428636    -2.6916821
H          -0.9804832    -1.8955223    -2.8606026
19
100_C8H7N3O_15-0-7-8 (0,) energy =    -548.5306333
N           2.4310099    -1.1010959    -0.2738440
H           1.9545612    -1.4864680     0.5315097
C           6.1611644     0.2996527     0.7942509
H           7.1260858     0.6442606     1.1515167
C           5.2497254    -0.2911297     1.6668467
H           5.4913009    -0.4163929     2.7210715
N           4.0459976    -0.7372223     1.2942780
C           3.7064161    -0.6032118     0.0042882
C           4.5410817    -0.0245407    -0.9662143
H           4.2091673     0.0549602    -1.9931979
C           5.7862879     0.4289568    -0.5452233
H           6.4618890     0.8830280    -1.2653582
C           1.0234377    -1.0215834    -3.4476593
H           1.0217959    -0.7905642    -4.5033412
N           2.1219477    -0.7165029    -2.6437706
C           1.7612298    -1.1336380    -1.4633989
O           0.5223990    -1.6896990    -1.4040915
C           0.0571572    -1.6073787    -2.7081886
H          -0.9294571    -2.0004841    -2.8880724
19
100_C8H7N3O_15-0-7-8 (15,) energy =    -548.5303034
N           3.0549260    -0.2291021    -1.8773985
H           3.1342752     0.4462458    -2.6275010
C           6.0769363     0.3462761     0.8728907
H           6.9024338     0.5535535     1.5460142
C           5.9003536     1.0970002    -0.2873489
H           6.5884155     1.9027219    -0.5379418
N           4.9051806     0.8970188    -1.1573983
C           4.0334147    -0.0848500    -0.8884339
C           4.1155425    -0.9125403     0.2434028
H           3.3800657    -1.6897692     0.4052693
C           5.1592547    -0.6749087     1.1308496
H           5.2558399    -1.2909036     2.0210091
C           0.2355847    -2.2102251    -1.4361088
H          -0.3683848    -2.9352272    -0.9093904
N           1.4742145    -1.8046139    -0.9387135
C           1.8906501    -0.9434741    -1.8227978
O           1.0472616    -0.7399126    -2.8688679
C          -0.0268455    -1.5747268    -2.5984609
H          -0.8288824    -1.5678302    -3.3174897
19
100_C8H7N3O_15-0-7-8 (30,) energy =    -548.5292197
N           3.1430405    -0.3717378    -1.9593978
H           3.2129193     0.3184702    -2.6983371
C           6.0258596     0.3954171     0.8959517
H           6.8146587     0.6515182     1.5957964
C           5.8231530     1.1557224    -0.2534186
H           6.4540568     2.0163189    -0.4693459
N           4.8676373     0.8999636    -1.1538559
C           4.0668040    -0.1490404    -0.9272312
C           4.1904022    -0.9987232     0.1836641
H           3.5124833    -1.8329900     0.3090014
C           5.1858469    -0.7008837     1.1074047
H           5.3093542    -1.3295319     1.9852628
C           0.1940979    -2.1210728    -1.3839373
H          -0.4472642    -2.7815421    -0.8179793
N           1.4682728    -1.7838445    -0.9265135
C           1.9226957    -0.9873299    -1.8503535
O           1.0747897    -0.7672070    -2.8886807
C          -0.0479499    -1.5150876    -2.5664604
H          -0.8622838    -1.4804250    -3.2707477
19
100_C8H7N3O_15-0-7-8 (45,) energy =    -548.5272443
N           3.2250907    -0.5204635    -2.0200341
H           3.3043624     0.1685582    -2.7610123
C           5.9659804     0.4373503     0.9230433
H           6.7155994     0.7407812     1.6467503
C           5.7174602     1.2112426    -0.2075769
H           6.2743381     2.1294120    -0.3860451
N           4.8028935     0.8991936    -1.1342127
C           4.0952287    -0.2208097    -0.9526124
C           4.2825681    -1.0944005     0.1292902
H           3.6824055    -1.9911752     0.2149618
C           5.2271247    -0.7379246     1.0845974
H           5.3946168    -1.3817512     1.9438465
C           0.1541093    -2.0037942    -1.3301627
H          -0.5298694    -2.5774808    -0.7210617
N           1.4515039    -1.7285889    -0.8967890
C           1.9550015    -1.0288249    -1.8706559
O           1.1217693    -0.8192982    -2.9217160
C          -0.0501421    -1.4620461    -2.5505503
H          -0.8635502    -1.4149537    -3.2552165
19
100_C8H7N3O_15-0-7-8 (60,) energy =    -548.5243735
N           3.2846154    -0.6691795    -2.0648944
H           3.3833170    -0.0040984    -2.8267791
C           5.8971277     0.4809001     0.9335309
H           6.6087698     0.8332246     1.6733654
C           5.5737626     1.2677049    -0.1686180
H           6.0341429     2.2439843    -0.3091720
N           4.6977299     0.8974580    -1.1124496
C           4.1104973    -0.2942761    -0.9766912
C           4.3926409    -1.1867945     0.0665322
H           3.8966184    -2.1485707     0.1086287
C           5.2882846    -0.7723274     1.0450087
H           5.5235534    -1.4292280     1.8779457
C           0.1063991    -1.8571022    -1.2808967
H          -0.6193086    -2.3238587    -0.6300957
N           1.4180758    -1.6342991    -0.8602426
C           1.9721675    -1.0625744    -1.8872601
O           1.1617581    -0.8906906    -2.9616117
C          -0.0545098    -1.4138480    -2.5468867
H          -0.8600288    -1.3716619    -3.2608987
19
100_C8H7N3O_15-0-7-8 (75,) energy =    -548.5209431
N           3.3375396    -0.8254357    -2.0793265
H           3.4723035    -0.2036959    -2.8728038
C           5.8317712     0.5034524     0.9555843
H           6.5048400     0.9023393     1.7079297
C           5.4079523     1.2992233    -0.1055901
H           5.7510027     2.3277105    -0.2013565
N           4.5711187     0.8732462    -1.0623562
C           4.1311131    -0.3833562    -0.9808666
C           4.5306318    -1.2845435     0.0125085
H           4.1610465    -2.3031029     0.0006257
C           5.3797708    -0.8177166     1.0093022
H           5.7021263    -1.4815950     1.8066938
C           0.0633712    -1.6690118    -1.2362364
H          -0.7049346    -1.9972436    -0.5505810
N           1.3805549    -1.4865593    -0.8131969
C           1.9912337    -1.0911562    -1.8890668
O           1.2134001    -0.9975865    -2.9962321
C          -0.0449436    -1.3764336    -2.5507869
H          -0.8343103    -1.3637172    -3.2837820
19
100_C8H7N3O_15-0-7-8 (90,) energy =    -548.5176319
N           3.3751212    -0.9894878    -2.0602303
H           3.5637587    -0.4506837    -2.9022749
C           5.7721492     0.5201012     0.9794054
H           6.4082957     0.9658516     1.7377248
C           5.2187069     1.3075276    -0.0284502
H           5.4232448     2.3755922    -0.0738014
N           4.4197530     0.8246769    -0.9899193
C           4.1516177    -0.4811494    -0.9672982
C           4.6884613    -1.3690790    -0.0319476
H           4.4571746    -2.4261409    -0.0973414
C           5.4991870    -0.8491001     0.9725173
H           5.9267361    -1.5043327     1.7263316
C           0.0285584    -1.4622089    -1.2098498
H          -0.7754385    -1.6402492    -0.5097303
N           1.3480635    -1.3256003    -0.7771392
C           2.0068018    -1.1212130    -1.8775352
O           1.2582280    -1.1108400    -3.0087656
C          -0.0335410    -1.3329587    -2.5533213
H          -0.8067103    -1.3539827    -3.3032447
19
100_C8H7N3O_15-0-7-8 (105,) energy =    -548.5150802
N           3.3820492    -1.1484059    -2.0159514
H           3.6373030    -0.7446915    -2.9137525
C           5.7253179     0.5374605     0.9817269
H           6.3338693     1.0280123     1.7351915
C           5.0187062     1.2927885     0.0453970
H           5.0745270     2.3797956     0.0551044
N           4.2471380     0.7550518    -0.9074047
C           4.1587583    -0.5749212    -0.9475351
C           4.8457819    -1.4256348    -0.0813409
H           4.7453442    -2.4993990    -0.1924408
C           5.6367211    -0.8525560     0.9125577
H           6.1813973    -1.4802921     1.6122937
C          -0.0082049    -1.2567957    -1.2243997
H          -0.8389166    -1.2950812    -0.5338629
N           1.3082560    -1.1798652    -0.7689780
C           2.0050830    -1.1482531    -1.8644952
O           1.2836417    -1.1983485    -3.0128173
C          -0.0314717    -1.2681420    -2.5752840
H          -0.7878522    -1.3102067    -3.3412980
19
100_C8H7N3O_15-0-7-8 (120,) energy =    -548.5151422
N           3.3002580    -1.0004309    -1.9721405
H           3.6579437    -1.8078875    -2.4674852
C           5.7720380     0.5417960     0.9769707
H           6.3979432     1.0024467     1.7346540
C           4.7866868     1.2824421     0.3234802
H           4.6316573     2.3316089     0.5694655
N           3.9925158     0.7895717    -0.6318041
C           4.1416798    -0.4963664    -0.9523257
C           5.0766176    -1.3423540    -0.3382144
H           5.1360805    -2.3922583    -0.6113641
C           5.9176458    -0.8014096     0.6293825
H           6.6597392    -1.4261888     1.1189940
C          -0.1311006    -0.7894130    -1.4180705
H          -1.0077311    -0.4920660    -0.8599987
N           1.1519453    -0.5000423    -0.9545340
C           1.9233942    -0.9985314    -1.8707994
O           1.2804486    -1.6034638    -2.9061324
C          -0.0614875    -1.4619201    -2.5881824
H          -0.7644977    -1.8898906    -3.2834081
19
100_C8H7N3O_15-0-7-8 (135,) energy =    -548.5167287
N           3.2558480    -1.1089751    -1.8292008
H           3.5954961    -1.9419935    -2.2917572
C           5.8067437     0.5732689     0.9633402
H           6.4505455     1.0657850     1.6849208
C           4.7129629     1.2410671     0.4136141
H           4.4907306     2.2666498     0.7038463
N           3.8864903     0.7067176    -0.4909488
C           4.1154514    -0.5528832    -0.8641868
C           5.1715343    -1.3290703    -0.3582281
H           5.3013326    -2.3610566    -0.6729718
C           6.0367572    -0.7427981     0.5582026
H           6.8676522    -1.3132840     0.9644117
C          -0.1843449    -0.6692169    -1.5167129
H          -1.0764396    -0.2873770    -1.0405548
N           1.0807341    -0.4068032    -0.9924804
C           1.8801714    -1.0111222    -1.8160036
O           1.2702207    -1.6613627    -2.8458143
C          -0.0787804    -1.4311041    -2.6279727
H          -0.7592684    -1.8749635    -3.3355378
19
100_C8H7N3O_15-0-7-8 (150,) energy =    -548.5178582
N           3.1935977    -1.2105172    -1.6772387
H           3.5215493    -2.0495286    -2.1351988
C           5.8395160     0.5886847     0.9416702
H           6.5058915     1.1055930     1.6245206
C           4.6593071     1.1881092     0.5076647
H           4.3897226     2.1862012     0.8491783
N           3.7953572     0.6191924    -0.3407005
C           4.0803366    -0.6078129    -0.7763972
C           5.2351062    -1.3158835    -0.3928897
H           5.4170265    -2.3223972    -0.7606459
C           6.1276785    -0.6950233     0.4700323
H           7.0304282    -1.2127721     0.7828639
C          -0.2264817    -0.5608712    -1.6352398
H          -1.1233052    -0.0881573    -1.2602959
N           1.0168951    -0.3014416    -1.0598665
C           1.8310846    -1.0283529    -1.7605745
O           1.2486985    -1.7567281    -2.7563479
C          -0.0959381    -1.4404557    -2.6529105
H          -0.7556026    -1.9223810    -3.3552943
19
100_C8H7N3O_15-0-7-8 (165,) energy =    -548.5185256
N           3.1368349    -1.3012778    -1.5290224
H           3.4615537    -2.1378322    -1.9925607
C           5.8624286     0.6023805     0.9245946
H           6.5472536     1.1409439     1.5714082
C           4.6139185     1.1322205     0.6104191
H           4.3066261     2.0973137     1.0101181
N           3.7193201     0.5310850    -0.1833300
C           4.0489935    -0.6557732    -0.6912390
C           5.2807551    -1.2919586    -0.4358598
H           5.5038556    -2.2659953    -0.8639164
C           6.1951519    -0.6418698     0.3793888
H           7.1546271    -1.1043826     0.5947148
C          -0.2331641    -0.4624544    -1.7722008
H          -1.1201088     0.0973431    -1.5108276
N           0.9886521    -0.2021850    -1.1523024
C           1.7972156    -1.0478756    -1.7126251
O           1.2287380    -1.8573666    -2.6544484
C          -0.0977341    -1.4594603    -2.6741796
H          -0.7432169    -1.9824563    -3.3601660
19
100_C8H7N3O_15-0-7-8 (180,) energy =    -548.5187485
N           3.0935283    -1.3900940    -1.3919628
H           3.4063578    -2.2414126    -1.8363186
C           5.8901002     0.5860893     0.9189835
H           6.5911672     1.1384687     1.5360109
C           4.5875340     1.0418598     0.7379402
H           4.2532669     1.9623351     1.2139811
N           3.6671851     0.4166758    -0.0067139
C           4.0305604    -0.7143695    -0.6095373
C           5.3220568    -1.2703333    -0.4986177
H           5.5765712    -2.1951208    -1.0103906
C           6.2561168    -0.6024648     0.2783148
H           7.2601020    -1.0045987     0.3841119
C          -0.1896014    -0.3564049    -1.9156782
H          -1.0366822     0.3032374    -1.7904973
N           1.0275056    -0.0870701    -1.2900345
C           1.7833311    -1.0727039    -1.6649164
O           1.1832900    -1.9830576    -2.4885260
C          -0.1040000    -1.4949830    -2.6381813
H          -0.7644854    -2.0733251    -3.2627278
