19
100_C8H7N3O_7-0-15-16 (-165,) energy =    -548.5186141
N           3.1345931    -1.3768287    -1.4786744
H           3.4250565    -2.2647995    -1.8623987
C           5.8794314     0.5381280     0.9446930
H           6.5661078     1.0735010     1.5921524
C           4.5657318     0.9699395     0.7861801
H           4.2074984     1.8533268     1.3123984
N           3.6618373     0.3622489     0.0076827
C           4.0553181    -0.7223597    -0.6580483
C           5.3605631    -1.2497066    -0.5763116
H           5.6395507    -2.1354973    -1.1414129
C           6.2757876    -0.6041100     0.2410605
H           7.2896336    -0.9857538     0.3268741
C          -0.1237216    -0.2945016    -2.0561900
H          -0.9291898     0.4261258    -2.0396092
N           1.1379246     0.0270863    -1.5573191
C           1.8212570    -1.0604076    -1.7399943
O           1.1326384    -2.0863269    -2.3231558
C          -0.1323480    -1.5617337    -2.5258948
H          -0.8506305    -2.2138312    -2.9945788
19
100_C8H7N3O_7-0-15-16 (-150,) energy =    -548.5182040
N           3.1841630    -1.3443796    -1.5789081
H           3.4550622    -2.2582683    -1.9136901
C           5.8507551     0.5007724     0.9858022
H           6.5155285     1.0176610     1.6700863
C           4.5312035     0.9140101     0.8253179
H           4.1460609     1.7633420     1.3873838
N           3.6532911     0.3258911     0.0034110
C           4.0803633    -0.7159815    -0.7080163
C           5.3943533    -1.2197189    -0.6303909
H           5.7013359    -2.0683379    -1.2363407
C           6.2819134    -0.5977549     0.2349411
H           7.3019073    -0.9628550     0.3200191
C          -0.0721529    -0.2446082    -2.1384257
H          -0.8486749     0.5045402    -2.2026475
N           1.2305568     0.0981867    -1.7829503
C           1.8612872    -1.0347759    -1.8072549
O           1.0981033    -2.1124898    -2.1572809
C          -0.1557585    -1.5726746    -2.3789445
H          -0.9247823    -2.2599264    -2.6909029
19
100_C8H7N3O_7-0-15-16 (-135,) energy =    -548.5175339
N           3.2250886    -1.3328099    -1.6729981
H           3.4827634    -2.2648565    -1.9673129
C           5.7921047     0.4685754     1.0255625
H           6.4285094     0.9736875     1.7447240
C           4.4634982     0.8493540     0.8587032
H           4.0427098     1.6603717     1.4509803
N           3.6187366     0.2710842    -0.0038713
C           4.0907252    -0.7229590    -0.7542672
C           5.4175934    -1.1887374    -0.6757648
H           5.7610099    -1.9965207    -1.3166912
C           6.2698992    -0.5813680     0.2348030
H           7.2991491    -0.9188374     0.3227385
C          -0.0293228    -0.2155675    -2.2190236
H          -0.7810348     0.5459922    -2.3713988
N           1.3064222     0.1188774    -2.0190342
C           1.8934244    -1.0277846    -1.8716487
O           1.0671328    -2.1116435    -1.9689996
C          -0.1754867    -1.5609960    -2.2082960
H          -0.9893120    -2.2537549    -2.3466688
19
100_C8H7N3O_7-0-15-16 (-120,) energy =    -548.5167438
N           3.2740725    -1.3110708    -1.7727932
H           3.5343408    -2.2440761    -2.0635336
C           5.7381180     0.4329104     1.0589321
H           6.3451777     0.9231895     1.8128730
C           4.4036480     0.7858488     0.8786818
H           3.9487443     1.5597367     1.4949203
N           3.5933117     0.2212892    -0.0252395
C           4.1083501    -0.7266180    -0.8069970
C           5.4449568    -1.1596560    -0.7189956
H           5.8236807    -1.9282781    -1.3874063
C           6.2607044    -0.5696324     0.2357173
H           7.2968013    -0.8830101     0.3323519
C           0.0153970    -0.1870862    -2.2933979
H          -0.7207433     0.5687711    -2.5277217
N           1.3714567     0.1142680    -2.2492091
C           1.9331845    -1.0120329    -1.9396091
O           1.0645187    -2.0568805    -1.7859958
C          -0.1709731    -1.5035193    -2.0340023
H          -1.0157259    -2.1720206    -1.9955557
19
100_C8H7N3O_7-0-15-16 (-105,) energy =    -548.5164470
N           3.2380633    -1.5898749    -1.6119538
H           3.7158189    -1.9320435    -2.4375491
C           5.6158901     0.4429691     1.0982840
H           6.1887682     0.9917113     1.8385167
C           4.2272917     0.5343746     1.0616251
H           3.6952822     1.1585951     1.7777790
N           3.4574427    -0.1122164     0.1776008
C           4.0666156    -0.8868057    -0.7221228
C           5.4614368    -1.0564197    -0.7773055
H           5.9135864    -1.7012630    -1.5260719
C           6.2376736    -0.3759694     0.1506166
H           7.3191917    -0.4814927     0.1338921
C           0.1717822    -0.2151411    -2.5916173
H          -0.4420545     0.4780333    -3.1490664
N           1.5572985    -0.1807717    -2.6606605
C           1.9425886    -1.1334052    -1.8672884
O           0.9210626    -1.8222676    -1.2872354
C          -0.2091245    -1.2105355    -1.7513722
H          -1.1507391    -1.5964638    -1.3945410
19
100_C8H7N3O_7-0-15-16 (-90,) energy =    -548.5180728
N           3.2500274    -1.5036159    -1.6945082
H           3.7264715    -1.7184010    -2.5627029
C           5.5887367     0.3966330     1.1460388
H           6.1520955     0.9108602     1.9177075
C           4.2030475     0.5099340     1.0819416
H           3.6634325     1.1169114     1.8070518
N           3.4450600    -0.0914241     0.1559380
C           4.0638535    -0.8456292    -0.7535207
C           5.4565038    -1.0376406    -0.7811235
H           5.9144272    -1.6700876    -1.5367219
C           6.2211099    -0.3986489     0.1849290
H           7.3009711    -0.5207688     0.1902785
C           0.1170294    -0.3119903    -2.6816203
H          -0.5382360     0.2628777    -3.3203908
N           1.4967931    -0.2935595    -2.8459868
C           1.9383959    -1.0784045    -1.9103784
O           0.9670363    -1.6423366    -1.1458412
C          -0.1982587    -1.1207506    -1.6397657
H          -1.1087477    -1.4184377    -1.1448654
19
100_C8H7N3O_7-0-15-16 (-75,) energy =    -548.5197181
N           3.2581739    -1.3909291    -1.7569925
H           3.7334612    -1.5430035    -2.6384475
C           5.5842906     0.3463761     1.1963223
H           6.1466898     0.8179636     1.9954292
C           4.2024206     0.4916745     1.1173499
H           3.6650737     1.0819488     1.8577708
N           3.4456037    -0.0552675     0.1571057
C           4.0614241    -0.7890005    -0.7703939
C           5.4501908    -1.0107064    -0.7853861
H           5.9049315    -1.6268192    -1.5561764
C           6.2141534    -0.4245517     0.2138459
H           7.2909076    -0.5705455     0.2296499
C           0.0607515    -0.4435551    -2.7660733
H          -0.6359212    -0.0081874    -3.4681465
N           1.4322627    -0.4314402    -2.9978611
C           1.9314562    -1.0233275    -1.9541129
O           1.0130613    -1.4501280    -1.0522897
C          -0.1885551    -1.0463872    -1.5784419
H          -1.0662416    -1.2536280    -0.9878327
19
100_C8H7N3O_7-0-15-16 (-60,) energy =    -548.5209115
N           3.2783021    -1.2859694    -1.7979813
H           3.7536022    -1.4334353    -2.6793444
C           5.6151313     0.2827655     1.2373637
H           6.1832709     0.7104866     2.0568273
C           4.2363832     0.4558336     1.1607824
H           3.7075479     1.0248694     1.9236635
N           3.4721615    -0.0363610     0.1771007
C           4.0769718    -0.7434442    -0.7777867
C           5.4625965    -0.9890694    -0.7983033
H           5.9084672    -1.5818929    -1.5922271
C           6.2341472    -0.4582142     0.2252242
H           7.3079712    -0.6245334     0.2373149
C           0.0349090    -0.5988274    -2.8347752
H          -0.6913927    -0.3099068    -3.5810023
N           1.3990741    -0.6004479    -3.1094846
C           1.9392737    -0.9882278    -1.9910415
O           1.0611695    -1.2589386    -0.9975986
C          -0.1678632    -0.9817193    -1.5518889
H          -1.0214080    -1.0931311    -0.9033081
19
100_C8H7N3O_7-0-15-16 (-45,) energy =    -548.5215848
N           3.2736241    -1.1818870    -1.8176573
H           3.7499938    -1.3660384    -2.6906420
C           5.6331072     0.2317241     1.2718395
H           6.2098719     0.6187218     2.1053853
C           4.2548418     0.4148039     1.2138353
H           3.7349533     0.9513059     2.0059482
N           3.4792756    -0.0285013     0.2159844
C           4.0720988    -0.6946400    -0.7754787
C           5.4576342    -0.9447361    -0.8183449
H           5.8948552    -1.5015195    -1.6427328
C           6.2399339    -0.4656115     0.2217640
H           7.3128513    -0.6378690     0.2170551
C           0.0059656    -0.7400126    -2.8820305
H          -0.7354510    -0.5955588    -3.6549540
N           1.3652377    -0.7744360    -3.1772702
C           1.9262843    -0.9545854    -2.0150990
O           1.0713063    -1.0496818    -0.9740332
C          -0.1736366    -0.8933299    -1.5494473
H          -1.0139188    -0.8998484    -0.8749146
19
100_C8H7N3O_7-0-15-16 (-30,) energy =    -548.5218985
N           3.2644678    -1.1021340    -1.8243693
H           3.7398710    -1.3482292    -2.6819338
C           5.6496576     0.1809574     1.2982146
H           6.2352886     0.5328179     2.1410661
C           4.2693280     0.3536702     1.2683614
H           3.7565561     0.8467196     2.0927397
N           3.4817386    -0.0498964     0.2630830
C           4.0651700    -0.6613274    -0.7688716
C           5.4537138    -0.8937552    -0.8440545
H           5.8853245    -1.4022500    -1.7020618
C           6.2467743    -0.4594355     0.2068398
H           7.3209744    -0.6209611     0.1777821
C          -0.0135807    -0.8721525    -2.9034191
H          -0.7611574    -0.8636385    -3.6839057
N           1.3424744    -0.9629373    -3.1996764
C           1.9117921    -0.9387290    -2.0260406
O           1.0685810    -0.8429231    -0.9784286
C          -0.1840082    -0.7911220    -1.5638343
H          -1.0177598    -0.6839777    -0.8899780
19
100_C8H7N3O_7-0-15-16 (-15,) energy =    -548.5220129
N           3.2621358    -1.0331153    -1.8383482
H           3.7350964    -1.3423273    -2.6763283
C           5.6604326     0.1325894     1.3176983
H           6.2508204     0.4527291     2.1698080
C           4.2778849     0.2880407     1.3099306
H           3.7679950     0.7352692     2.1618006
N           3.4836413    -0.0803570     0.2963735
C           4.0632423    -0.6344402    -0.7699140
C           5.4548636    -0.8425357    -0.8707331
H           5.8847175    -1.3009005    -1.7574782
C           6.2535070    -0.4485865     0.1913363
H           7.3292819    -0.5942550     0.1432385
C          -0.0260210    -0.9861242    -2.8998152
H          -0.7797533    -1.1000848    -3.6660142
N           1.3260966    -1.1415099    -3.1859653
C           1.9046877    -0.9293792    -2.0348870
O           1.0730971    -0.6487147    -1.0133651
C          -0.1857272    -0.6843770    -1.5911235
H          -1.0129213    -0.4687845    -0.9355835
19
100_C8H7N3O_7-0-15-16 (0,) energy =    -548.5220412
N           3.2686031    -0.9735382    -1.8591944
H           3.7375547    -1.3436611    -2.6743738
C           5.6649611     0.0880359     1.3337606
H           6.2551659     0.3802736     2.1959512
C           4.2799983     0.2197961     1.3406095
H           3.7679158     0.6193937     2.2145587
N           3.4853174    -0.1181851     0.3168176
C           4.0676035    -0.6130088    -0.7769090
C           5.4623480    -0.7908309    -0.8952497
H           5.8949846    -1.1980839    -1.8053140
C           6.2607011    -0.4323728     0.1793454
H           7.3384458    -0.5573273     0.1187471
C          -0.0307940    -1.0888433    -2.8761378
H          -0.7920139    -1.3141023    -3.6096097
N           1.3164183    -1.3119002    -3.1395937
C           1.9065333    -0.9255696    -2.0405034
O           1.0877394    -0.4685760    -1.0744108
C          -0.1766716    -0.5804973    -1.6314174
H          -0.9965700    -0.2616156    -1.0097502
19
100_C8H7N3O_7-0-15-16 (15,) energy =    -548.5220129
N           2.9244278    -1.5811081    -1.0760532
H           3.0013843    -2.5669652    -0.8670601
C           5.9924237     0.8401798     0.2641301
H           6.7730068     1.5140659     0.6013329
C           4.8247013     1.3327774    -0.3098347
H           4.6777170     2.4051879    -0.4282190
N           3.8180718     0.5653659    -0.7475725
C           3.9529938    -0.7562138    -0.6245373
C           5.0930302    -1.3662106    -0.0603576
H           5.1625028    -2.4480217     0.0174113
C           6.1181271    -0.5480273     0.3877174
H           7.0087793    -0.9877511     0.8284053
C          -0.2512242    -1.4259688    -2.4295901
H          -1.1915622    -1.8828967    -2.7037097
N           0.7486944    -2.1536630    -1.7932939
C           1.7024765    -1.2771488    -1.6296752
O           1.4366217    -0.0408593    -2.0930673
C           0.1556092    -0.1487764    -2.6098613
H          -0.2629664     0.7516862    -3.0275027
19
100_C8H7N3O_7-0-15-16 (30,) energy =    -548.5218985
N           2.9566867    -1.6019936    -1.1351085
H           3.0045017    -2.5758239    -0.8679827
C           5.9577482     0.8495827     0.3034286
H           6.7191627     1.5318494     0.6666480
C           4.7751430     1.3310713    -0.2494228
H           4.5967899     2.4026084    -0.3244606
N           3.7899065     0.5522892    -0.7147776
C           3.9642322    -0.7683286    -0.6458596
C           5.1226070    -1.3672541    -0.1099629
H           5.2246239    -2.4487920    -0.0799726
C           6.1239828    -0.5380446     0.3713019
H           7.0280700    -0.9687452     0.7931599
C          -0.2819048    -1.3803104    -2.3289357
H          -1.2660867    -1.7946087    -2.4958060
N           0.6941882    -2.0878713    -1.6350370
C           1.7156912    -1.2762924    -1.6360604
O           1.5163480    -0.0998618    -2.2637132
C           0.2067496    -0.1757779    -2.7036583
H          -0.1711296     0.6919924    -3.2183292
19
100_C8H7N3O_7-0-15-16 (45,) energy =    -548.5215848
N           2.9945509    -1.6359793    -1.1975651
H           3.0144708    -2.5944027    -0.8751214
C           5.9142526     0.8561426     0.3435774
H           6.6520065     1.5495948     0.7335346
C           4.7160381     1.3183476    -0.1922837
H           4.5013945     2.3852578    -0.2268077
N           3.7576542     0.5237214    -0.6860432
C           3.9779534    -0.7913138    -0.6678786
C           5.1557033    -1.3705613    -0.1565359
H           5.2951120    -2.4481080    -0.1721459
C           6.1278733    -0.5263582     0.3588145
H           7.0464680    -0.9413482     0.7647868
C          -0.3008925    -1.3076867    -2.2163933
H          -1.3228571    -1.6549743    -2.2707605
N           0.6590364    -1.9894318    -1.4749541
C           1.7380859    -1.2789738    -1.6445734
O           1.5912842    -0.1922934    -2.4328778
C           0.2570001    -0.2140991    -2.7859225
H          -0.0869838     0.6038921    -3.3972135
19
100_C8H7N3O_7-0-15-16 (60,) energy =    -548.5209115
N           3.0434473    -1.6690042    -1.2856615
H           3.0458951    -2.6171682    -0.9314917
C           5.8655653     0.8565312     0.3853694
H           6.5756161     1.5596930     0.8080276
C           4.6613217     1.2988153    -0.1540240
H           4.4141251     2.3591586    -0.1587108
N           3.7356579     0.4899476    -0.6858136
C           3.9974087    -0.8172244    -0.7047720
C           5.1846035    -1.3758444    -0.1956348
H           5.3581281    -2.4473216    -0.2444300
C           6.1223844    -0.5182810     0.3610144
H           7.0478730    -0.9168376     0.7678678
C          -0.3028047    -1.2122749    -2.0984983
H          -1.3489396    -1.4754671    -2.0338779
N           0.6598671    -1.8633478    -1.3331348
C           1.7717436    -1.2784738    -1.6718930
O           1.6431060    -0.3051643    -2.6032365
C           0.2906331    -0.2586370    -2.8547562
H          -0.0408430     0.4935405    -3.5518651
19
100_C8H7N3O_7-0-15-16 (75,) energy =    -548.5197181
N           3.0831042    -1.6770284    -1.3927327
H           3.0870704    -2.6273875    -1.0423195
C           5.7990528     0.8612227     0.4326498
H           6.4795846     1.5694313     0.8937101
C           4.6006183     1.2896933    -0.1304495
H           4.3283763     2.3437653    -0.1161266
N           3.7110276     0.4728168    -0.7095239
C           4.0040782    -0.8272507    -0.7519595
C           5.1883229    -1.3712290    -0.2230894
H           5.3882058    -2.4369309    -0.2925719
C           6.0892773    -0.5060604     0.3814311
H           7.0119898    -0.8930719     0.8054444
C          -0.3015591    -1.0915845    -1.9763256
H          -1.3523630    -1.2597477    -1.7883434
N           0.6832545    -1.7028804    -1.2073167
C           1.7954558    -1.2614999    -1.7143929
O           1.6430670    -0.4238654    -2.7698733
C           0.2831396    -0.3041166    -2.9112322
H          -0.0632818     0.3631508    -3.6837916
19
100_C8H7N3O_7-0-15-16 (90,) energy =    -548.5180728
N           3.1455113    -1.6744364    -1.5057301
H           3.1782878    -2.6430096    -1.2096125
C           5.7609393     0.8411657     0.4893896
H           6.4143019     1.5458901     0.9931320
C           4.5776166     1.2684524    -0.1058020
H           4.2903783     2.3181810    -0.0748987
N           3.7223674     0.4553563    -0.7391129
C           4.0335966    -0.8400515    -0.8015824
C           5.2046718    -1.3820444    -0.2430734
H           5.4201088    -2.4436140    -0.3283334
C           6.0719159    -0.5203359     0.4138398
H           6.9838744    -0.9060072     0.8617586
C          -0.2600804    -0.9781047    -1.8622461
H          -1.2943791    -1.0421309    -1.5556512
N           0.7620851    -1.5329616    -1.1017099
C           1.8411684    -1.2526333    -1.7675575
O           1.6261013    -0.5760141    -2.9260085
C           0.2708313    -0.3863993    -2.9608719
H          -0.1177349     0.1697128    -3.7988992
19
100_C8H7N3O_7-0-15-16 (105,) energy =    -548.5164470
N           3.2056305    -1.6418054    -1.6043268
H           3.3037520    -2.6340258    -1.4231929
C           5.7436748     0.8143337     0.5538338
H           6.3775630     1.5058577     1.0990232
C           4.5788544     1.2552526    -0.0680094
H           4.2875132     2.3031288    -0.0166722
N           3.7499828     0.4599435    -0.7555445
C           4.0652082    -0.8337668    -0.8422210
C           5.2169485    -1.3890410    -0.2569760
H           5.4352434    -2.4488564    -0.3572123
C           6.0608156    -0.5435963     0.4499304
H           6.9576839    -0.9405051     0.9181084
C          -0.2052751    -0.8755940    -1.7787229
H          -1.2070148    -0.8302697    -1.3756122
N           0.8625941    -1.3456037    -1.0274807
C           1.8843288    -1.2434545    -1.8218469
O           1.5815885    -0.7623416    -3.0593329
C           0.2382622    -0.5173027    -3.0103120
H          -0.2125545    -0.1070946    -3.8999192
19
100_C8H7N3O_7-0-15-16 (120,) energy =    -548.5167438
N           3.0317659    -1.7054157    -1.1374143
H           3.3935023    -2.4558485    -1.7107898
C           5.8773704     0.6874587     0.6814481
H           6.5866608     1.3516650     1.1642096
C           4.5830524     1.1132099     0.3962366
H           4.2642228     2.1222535     0.6526910
N           3.6574916     0.3531451    -0.2021642
C           4.0004227    -0.8921617    -0.5285844
C           5.2771263    -1.4321140    -0.2830987
H           5.5066889    -2.4585618    -0.5563949
C           6.2235216    -0.6197541     0.3247310
H           7.2198795    -1.0044173     0.5255937
C          -0.2473737    -0.6127373    -1.5919375
H          -1.1971411    -0.2331756    -1.2426452
N           0.8000076    -0.8587924    -0.7120919
C           1.7549816    -1.2912286    -1.4742998
O           1.4310334    -1.3722731    -2.8003372
C           0.1248148    -0.9418437    -2.8521701
H          -0.3492456    -0.9538200    -3.8202115
19
100_C8H7N3O_7-0-15-16 (135,) energy =    -548.5175339
N           3.0454068    -1.6170885    -1.2068368
H           3.4030256    -2.3692446    -1.7796338
C           5.8951265     0.6592425     0.7461464
H           6.6075666     1.2921652     1.2649726
C           4.6034579     1.1070393     0.4832802
H           4.2900048     2.1025216     0.7937101
N           3.6733347     0.3858052    -0.1544877
C           4.0098110    -0.8411181    -0.5487309
C           5.2840231    -1.4009207    -0.3326304
H           5.5095498    -2.4114299    -0.6631527
C           6.2342837    -0.6287194     0.3194158
H           7.2282597    -1.0295060     0.4992910
C          -0.2401743    -0.5499023    -1.6580489
H          -1.1655585    -0.0945798    -1.3346174
N           0.8543825    -0.6446361    -0.8042085
C           1.7592981    -1.2294847    -1.5254599
O           1.3629391    -1.5507306    -2.7930105
C           0.0558352    -1.1120209    -2.8530638
H          -0.4693376    -1.2920753    -3.7767241
19
100_C8H7N3O_7-0-15-16 (150,) energy =    -548.5182040
N           3.0599303    -1.5313072    -1.2624467
H           3.4036511    -2.3129595    -1.8023847
C           5.9147809     0.6226590     0.8120134
H           6.6304519     1.2230958     1.3639495
C           4.6236897     1.0878444     0.5787301
H           4.3135793     2.0646528     0.9465538
N           3.6885572     0.4062865    -0.0944371
C           4.0211095    -0.7961506    -0.5608829
C           5.2958892    -1.3700836    -0.3823199
H           5.5204507    -2.3588546    -0.7740744
C           6.2492764    -0.6398479     0.3113739
H           7.2427043    -1.0528204     0.4646009
C          -0.2282883    -0.4827942    -1.7253635
H          -1.1284057     0.0479874    -1.4489708
N           0.9103851    -0.4339498    -0.9241425
C           1.7655480    -1.1690673    -1.5646984
O           1.2992197    -1.7175640    -2.7257875
C          -0.0054658    -1.2656880    -2.8051922
H          -0.5779220    -1.6017407    -3.6539523
19
100_C8H7N3O_7-0-15-16 (165,) energy =    -548.5186141
N           3.0766386    -1.4473201    -1.3413186
H           3.4052898    -2.2639192    -1.8365553
C           5.9074250     0.5966425     0.8683667
H           6.6179760     1.1681027     1.4565019
C           4.6164079     1.0701337     0.6527889
H           4.3009995     2.0243252     1.0718901
N           3.6864931     0.4238053    -0.0612775
C           4.0261820    -0.7497129    -0.5921848
C           5.3029325    -1.3283060    -0.4386185
H           5.5352423    -2.2913913    -0.8861656
C           6.2490780    -0.6357452     0.3014444
H           7.2428538    -1.0537483     0.4377609
C          -0.2164489    -0.4211504    -1.8146273
H          -1.0932717     0.1728633    -1.5985582
N           0.9630447    -0.2498390    -1.0910999
C           1.7723563    -1.1123694    -1.6240187
O           1.2407853    -1.8544331    -2.6406595
C          -0.0594244    -1.3903219    -2.7434036
H          -0.6753229    -1.8565401    -3.4944944
19
100_C8H7N3O_7-0-15-16 (180,) energy =    -548.5187478
N           3.0929913    -1.4068727    -1.4002595
H           3.4051649    -2.2582771    -1.8449186
C           5.8942277     0.5699078     0.9046402
H           6.5967375     1.1223276     1.5199988
C           4.5905148     1.0241008     0.7282055
H           4.2564122     1.9431661     1.2070536
N           3.6685231     0.3986161    -0.0142887
C           4.0317247    -0.7307561    -0.6201461
C           5.3241030    -1.2855555    -0.5132714
H           5.5771442    -2.2105706    -1.0253474
C           6.2595689    -0.6178825     0.2620759
H           7.2642512    -1.0190821     0.3647621
C          -0.1802946    -0.3539878    -1.9467816
H          -1.0222307     0.3143350    -1.8334883
N           1.0376853    -0.0854028    -1.3225864
C           1.7857794    -1.0832908    -1.6801479
O           1.1799400    -2.0015081    -2.4907851
C          -0.1023298    -1.5041019    -2.6516515
H          -0.7658206    -2.0853593    -3.2702683
