25
285_C8H13N3O_14-0-1-2 (-165,) energy =    -552.1476038
C           2.5601301    -0.7838071    -0.7888244
N           1.2088621    -0.5931845    -0.4485911
C           0.3064084    -1.6779362    -0.8187543
H           0.0176669    -1.6377983    -1.8798185
H          -0.5998137    -1.6074419    -0.2071531
H           0.7967368    -2.6347012    -0.6386104
C           0.6109631     0.7382211    -0.5296602
H           1.3678913     1.5001726    -0.3421708
H          -0.1937593     0.8443583     0.2083069
H           0.1776194     0.9160462    -1.5267730
C           3.5062836     0.7066470     1.1316853
N           2.5247189     0.5609101     2.1129095
H           1.6618637     0.1566001     1.7713875
H           2.3672132     1.3838199     2.6812241
C           3.5212118     0.1090273    -0.1398819
N           4.7707067     0.3823795    -0.7085097
C           5.2254876    -0.0301021    -2.0278371
H           6.2365928     0.3571152    -2.1748660
H           4.5744844     0.3740271    -2.8105191
H           5.2221175    -1.1175386    -2.1099410
C           5.4811169     1.1578871     0.1511684
H           6.4706788     1.5042248    -0.1145281
C           4.7448138     1.3750190     1.3019235
H           5.0690406     1.9203912     2.1778230
O           2.8989758    -1.7140329    -1.5231853
25
285_C8H13N3O_14-0-1-2 (-150,) energy =    -552.1448117
C           2.5166019    -0.6653397    -0.9227469
N           1.1797037    -0.5209767    -0.4649169
C           0.3259094    -1.6887352    -0.6517433
H          -0.0553338    -1.7833055    -1.6800305
H          -0.5284244    -1.6111832     0.0303729
H           0.8925312    -2.5912907    -0.4181353
C           0.5212165     0.7678710    -0.6594266
H           1.2387531     1.5757246    -0.4995251
H          -0.3050416     0.8840751     0.0527350
H           0.1071605     0.8662473    -1.6764723
C           3.4829652     0.6560638     1.1040237
N           2.4687031     0.5185064     2.0450007
H           1.5941650     0.1912307     1.6538771
H           2.3607484     1.2992082     2.6793260
C           3.5084271     0.1110868    -0.1949913
N           4.7828893     0.3684568    -0.7222222
C           5.2588154     0.0059080    -2.0488997
H           6.2839057     0.3705442    -2.1516740
H           4.6385177     0.4645651    -2.8256759
H           5.2279359    -1.0754658    -2.1866076
C           5.4991868     1.0683743     0.1924930
H           6.5111046     1.3810634    -0.0274291
C           4.7425424     1.2616705     1.3351719
H           5.0661598     1.7525842     2.2429251
O           2.8006304    -1.4931060    -1.7896418
25
285_C8H13N3O_14-0-1-2 (-135,) energy =    -552.1422781
C           2.4589864    -0.4476740    -0.9932643
N           1.1477870    -0.4033851    -0.3409617
C           0.4521534    -1.6909534    -0.4607595
H           0.2411221    -1.9668675    -1.5037962
H          -0.4918784    -1.6308731     0.0912881
H           1.0662645    -2.4762248    -0.0106367
C           0.3509867     0.7008526    -0.8955539
H           0.8937410     1.6427505    -0.7660580
H          -0.5977336     0.7699778    -0.3520694
H           0.1338828     0.5654088    -1.9673848
C           3.5419019     0.5935756     1.1206291
N           2.5184921     0.4843639     2.0382950
H           1.6251451     0.2602028     1.6078832
H           2.4945330     1.1888375     2.7629799
C           3.5194665     0.1344041    -0.2202704
N           4.8089797     0.3484082    -0.7458782
C           5.2617150     0.0385850    -2.0942054
H           6.3100985     0.3383310    -2.1726493
H           4.6732903     0.5802764    -2.8393461
H           5.1647869    -1.0283917    -2.3020012
C           5.5722357     0.9286664     0.2088734
H           6.6029708     1.1855841     0.0028824
C           4.8400108     1.0971201     1.3727802
H           5.2035310     1.5117634     2.3030331
O           2.5909012    -0.9614981    -2.1027100
25
285_C8H13N3O_14-0-1-2 (-120,) energy =    -552.1419616
C           2.4138933    -0.2672184    -1.0317952
N           1.1129434    -0.2680284    -0.3388933
C           0.5610870    -1.6325427    -0.3217219
H           0.4044873    -2.0344038    -1.3337537
H          -0.3959323    -1.6217604     0.2106430
H           1.2466671    -2.2939998     0.2174700
C           0.1957997     0.6552875    -1.0276663
H           0.6221137     1.6637852    -1.0197050
H          -0.7557478     0.6787888    -0.4857299
H           0.0068522     0.3624652    -2.0709905
C           3.5524744     0.5602362     1.1428493
N           2.5125123     0.4812624     2.0436466
H           1.6114414     0.3645459     1.5831802
H           2.5360548     1.1517088     2.8007158
C           3.5089064     0.1767648    -0.2225239
N           4.8141483     0.3334675    -0.7311921
C           5.2576795     0.0607442    -2.0906575
H           6.3266003     0.2837268    -2.1447012
H           4.7180469     0.6798679    -2.8109241
H           5.0869115    -0.9851060    -2.3538266
C           5.6068779     0.8070953     0.2573106
H           6.6543793     1.0043738     0.0706959
C           4.8789685     0.9622058     1.4259604
H           5.2621469     1.3043941     2.3775234
O           2.4912451    -0.6026177    -2.2124274
25
285_C8H13N3O_14-0-1-2 (-105,) energy =    -552.1432171
C           2.3891067    -0.1054774    -1.0904360
N           1.0997873    -0.1528216    -0.3880806
C           0.6889470    -1.5579847    -0.2147856
H           0.5596633    -2.0731779    -1.1792906
H          -0.2581917    -1.5900479     0.3340480
H           1.4444621    -2.0894198     0.3724116
C           0.0792570     0.5832206    -1.1526403
H           0.3972548     1.6228545    -1.2763099
H          -0.8559845     0.5721440    -0.5830165
H          -0.0991692     0.1526958    -2.1474594
C           3.5566194     0.5203581     1.1362307
N           2.4991857     0.4722966     2.0228244
H           1.6001499     0.4686577     1.5429853
H           2.5651314     1.1125554     2.8041365
C           3.5046648     0.2116292    -0.2463212
N           4.8216034     0.3117422    -0.7357950
C           5.2636977     0.0780329    -2.1031378
H           6.3465080     0.2255665    -2.1341070
H           4.7777731     0.7680764    -2.7958391
H           5.0252082    -0.9394591    -2.4210869
C           5.6324875     0.6803285     0.2829882
H           6.6923469     0.8188479     0.1145995
C           4.9023006     0.8218117     1.4517236
H           5.2944308     1.0924012     2.4225499
O           2.4472607    -0.2747544    -2.3072369
25
285_C8H13N3O_14-0-1-2 (-90,) energy =    -552.1457302
C           2.3740172     0.0300176    -1.1456521
N           1.0978288    -0.0803569    -0.4566124
C           0.8074116    -1.4871292    -0.1210723
H           0.6956297    -2.1083511    -1.0238561
H          -0.1229117    -1.5357988     0.4545125
H           1.6137610    -1.8944313     0.4950509
C           0.0071944     0.4836337    -1.2658860
H           0.2407656     1.5198850    -1.5230196
H          -0.9087995     0.4673138    -0.6660386
H          -0.1630083    -0.0716372    -2.1981689
C           3.5550618     0.4655269     1.1217741
N           2.4829810     0.4489544     1.9991350
H           1.5937437     0.5549078     1.5141369
H           2.5893769     1.0599635     2.8000616
C           3.5019962     0.2241141    -0.2708687
N           4.8248114     0.2778220    -0.7452269
C           5.2680350     0.0777589    -2.1176565
H           6.3594946     0.1384446    -2.1288765
H           4.8472129     0.8361126    -2.7803655
H           4.9562561    -0.9019591    -2.4877411
C           5.6464415     0.5492519     0.2966752
H           6.7140229     0.6340931     0.1430097
C           4.9117612     0.6763225     1.4637479
H           5.3061869     0.8824281     2.4494426
O           2.4317353     0.0447497    -2.3745648
25
285_C8H13N3O_14-0-1-2 (-75,) energy =    -552.1485777
C           2.3488710     0.1826097    -1.1660436
N           1.0861033    -0.0293614    -0.5176676
C           0.8911821    -1.4125141    -0.0471478
H           0.7864586    -2.1143178    -0.8896996
H          -0.0186402    -1.4629104     0.5599874
H           1.7344823    -1.7213017     0.5734698
C          -0.0459805     0.4046059    -1.3443843
H           0.1174901     1.4297829    -1.6818757
H          -0.9527041     0.3677899    -0.7317034
H          -0.1880610    -0.2268666    -2.2325901
C           3.5410300     0.4425017     1.1261696
N           2.4608012     0.4564076     2.0023724
H           1.5839777     0.6488083     1.5232780
H           2.6015536     1.0505225     2.8114840
C           3.4855380     0.2519280    -0.2704238
N           4.8083140     0.2735471    -0.7389899
C           5.2462915     0.0983777    -2.1165081
H           6.3392943     0.1047421    -2.1245897
H           4.8619770     0.8967877    -2.7528933
H           4.8903422    -0.8542319    -2.5184649
C           5.6392113     0.4647095     0.3152086
H           6.7102095     0.5025971     0.1678504
C           4.9040090     0.5794666     1.4825839
H           5.3003590     0.7330974     2.4771211
O           2.4134091     0.3963068    -2.3771208
25
285_C8H13N3O_14-0-1-2 (-60,) energy =    -552.1504729
C           2.3357206     0.3047186    -1.1636665
N           1.0831611    -0.0234146    -0.5886367
C           0.9472347    -1.3620963     0.0034271
H           0.8264922    -2.1301129    -0.7769147
H           0.0631136    -1.3880281     0.6491024
H           1.8205173    -1.6032167     0.6087141
C          -0.0616545     0.3246038    -1.4315741
H           0.0564093     1.3407215    -1.8096054
H          -0.9710827     0.2630095    -0.8249443
H          -0.1645616    -0.3482819    -2.2953459
C           3.5381419     0.4202875     1.1392580
N           2.4559606     0.4632612     2.0198913
H           1.5909291     0.7243766     1.5540923
H           2.6286878     1.0410468     2.8350514
C           3.4765125     0.2641130    -0.2578847
N           4.7960522     0.2609666    -0.7280617
C           5.2225213     0.1077015    -2.1116350
H           6.3146775     0.0706930    -2.1259194
H           4.8649648     0.9380505    -2.7218277
H           4.8292873    -0.8202996    -2.5373589
C           5.6364633     0.3890356     0.3299175
H           6.7077841     0.3866864     0.1811741
C           4.9054093     0.4972521     1.4999406
H           5.3058804     0.6106814     2.4982997
O           2.4141396     0.6966209    -2.3299644
25
285_C8H13N3O_14-0-1-2 (-45,) energy =    -552.1508753
C           2.3273485     0.3906836    -1.1345492
N           1.0909979    -0.0567221    -0.6511526
C           0.9783741    -1.3314515     0.0607248
H           0.7876835    -2.1538508    -0.6466290
H           0.1445301    -1.2934644     0.7704221
H           1.8909246    -1.5459345     0.6130874
C          -0.0578304     0.2405578    -1.5012607
H           0.0450672     1.2430452    -1.9161596
H          -0.9692594     0.1802721    -0.8970146
H          -0.1442327    -0.4672786    -2.3391112
C           3.5467706     0.4030496     1.1687318
N           2.4693823     0.4646556     2.0609413
H           1.6158121     0.7900572     1.6167310
H           2.6755848     1.0185794     2.8851339
C           3.4722452     0.2738719    -0.2276282
N           4.7861153     0.2555229    -0.7073455
C           5.1953017     0.1277679    -2.0984854
H           6.2865509     0.0789995    -2.1274665
H           4.8383498     0.9760586    -2.6836355
H           4.7879495    -0.7874442    -2.5397157
C           5.6391423     0.3359768     0.3468158
H           6.7087102     0.3060431     0.1895319
C           4.9181501     0.4356612     1.5231806
H           5.3267751     0.5175708     2.5213980
O           2.4150450     0.9239640    -2.2444605
25
285_C8H13N3O_14-0-1-2 (-30,) energy =    -552.1501257
C           2.3062362     0.4143882    -1.1316492
N           1.0961369    -0.1401502    -0.7333719
C           0.9800289    -1.3281647     0.1050203
H           0.6684753    -2.1889459    -0.5059197
H           0.2297781    -1.1818237     0.8911641
H           1.9331845    -1.5594759     0.5753167
C          -0.0673848     0.1366680    -1.5645067
H           0.0629246     1.1002677    -2.0555541
H          -0.9656930     0.1529717    -0.9367606
H          -0.2015010    -0.6308365    -2.3413804
C           3.5522506     0.3705560     1.1653073
N           2.4868463     0.4530855     2.0758082
H           1.6478583     0.8446766     1.6592333
H           2.7331281     0.9781364     2.9081852
C           3.4582914     0.2566603    -0.2292614
N           4.7647733     0.2253423    -0.7251376
C           5.1513128     0.0952055    -2.1224468
H           6.2425989     0.0960568    -2.1747774
H           4.7429901     0.9204980    -2.7063082
H           4.7783693    -0.8445595    -2.5442714
C           5.6337287     0.2719680     0.3191245
H           6.7002049     0.2212037     0.1474331
C           4.9284611     0.3696999     1.5044593
H           5.3495854     0.4349825     2.4987798
O           2.3924873     1.0459321    -2.1906993
25
285_C8H13N3O_14-0-1-2 (-15,) energy =    -552.1487631
C           2.2953998     0.4622892    -1.1563790
N           1.1151307    -0.1972665    -0.8661163
C           0.9676704    -1.2983548     0.0734127
H           0.5651572    -2.1750732    -0.4536894
H           0.2765093    -1.0466246     0.8877294
H           1.9308377    -1.5610340     0.5059784
C          -0.0518604     0.0805993    -1.6895602
H           0.1398902     0.9751620    -2.2803384
H          -0.9333456     0.2307071    -1.0532546
H          -0.2606700    -0.7560712    -2.3716548
C           3.5370297     0.3627982     1.1513948
N           2.4727969     0.4566774     2.0662793
H           1.6655150     0.9355521     1.6801288
H           2.7528105     0.9165638     2.9261464
C           3.4415196     0.2722979    -0.2431465
N           4.7469227     0.2321201    -0.7392268
C           5.1293527     0.1164115    -2.1387830
H           6.2198264     0.1453744    -2.1977630
H           4.6973139     0.9357195    -2.7138769
H           4.7783774    -0.8310540    -2.5634742
C           5.6177109     0.2415493     0.3054750
H           6.6828982     0.1736740     0.1321041
C           4.9133533     0.3298293     1.4913659
H           5.3345461     0.3729084     2.4869945
O           2.3910984     1.1801536    -2.1593428
25
285_C8H13N3O_14-0-1-2 (0,) energy =    -552.1469799
C           2.2786956     0.4962764    -1.1159495
N           1.1423971    -0.2655416    -0.9272773
C           0.9570174    -1.2773811     0.0995286
H           0.5044660    -2.1684044    -0.3553278
H           0.2928223    -0.9324886     0.9030554
H           1.9143091    -1.5533914     0.5374376
C          -0.0246514     0.0125351    -1.7513169
H           0.2262332     0.8098974    -2.4490802
H          -0.8773699     0.3175590    -1.1286145
H          -0.3166230    -0.8852094    -2.3121953
C           3.5434430     0.3516757     1.1879772
N           2.4903950     0.4414777     2.1202093
H           1.7146491     1.0017511     1.7815037
H           2.8072524     0.8265420     3.0039305
C           3.4298462     0.2861832    -0.2052211
N           4.7281576     0.2494638    -0.7181360
C           5.0902156     0.1637445    -2.1249003
H           6.1801065     0.1741964    -2.1981750
H           4.6669168     1.0062320    -2.6729058
H           4.7162430    -0.7656319    -2.5694593
C           5.6135401     0.2293347     0.3151811
H           6.6756923     0.1567213     0.1262395
C           4.9240147     0.3000599     1.5102375
H           5.3571249     0.3231209     2.5015229
O           2.3654137     1.2866548    -2.0638304
25
285_C8H13N3O_14-0-1-2 (15,) energy =    -552.1459710
C           2.7434328    -0.8743553     0.0421509
N           1.3814048    -0.7101504    -0.1604225
C           0.7584354     0.4232285    -0.8212625
H           0.0616548     0.9538811    -0.1561132
H           0.1796752     0.0740869    -1.6881771
H           1.5207644     1.1175022    -1.1734044
C           0.4993794    -1.8307836     0.1284029
H           1.0574225    -2.5781853     0.6903007
H           0.1278351    -2.2890522    -0.7993849
H          -0.3651329    -1.4897612     0.7124214
C           3.5510004     1.5974374     0.3998707
N           2.5624430     2.1169745     1.2492583
H           1.7230269     1.5541772     1.3007843
H           2.3326269     3.0870607     1.0646245
C           3.6189755     0.3037899    -0.1325281
N           4.8732007     0.1728527    -0.7339767
C           5.3682890    -1.0012059    -1.4359979
H           6.3980304    -0.8060653    -1.7441956
H           4.7674048    -1.2100652    -2.3290742
H           5.3306609    -1.8716423    -0.7802716
C           5.5312023     1.3609602    -0.6423678
H           6.5088655     1.4808267    -1.0887455
C           4.7564438     2.2646087     0.0581612
H           5.0342777     3.2733906     0.3320477
O           3.2076687    -1.9810698     0.3339520
25
285_C8H13N3O_14-0-1-2 (30,) energy =    -552.1472661
C           2.7396383    -0.8815440    -0.0117405
N           1.3677130    -0.6539467    -0.0785023
C           0.7599226     0.4166852    -0.8567396
H          -0.0015783     0.9517114    -0.2733300
H           0.2632709     0.0037686    -1.7477825
H           1.5223062     1.1221109    -1.1852708
C           0.4898705    -1.7809093     0.2040665
H           0.9935917    -2.4640636     0.8867505
H           0.2330333    -2.3343433    -0.7115569
H          -0.4378585    -1.4142452     0.6584662
C           3.5582190     1.5676054     0.4063024
N           2.5625300     2.0627782     1.2578296
H           1.7252517     1.4949965     1.2869866
H           2.3388358     3.0401117     1.1104256
C           3.6279308     0.2845731    -0.1548758
N           4.8838300     0.1673582    -0.7573036
C           5.3807896    -0.9886601    -1.4880645
H           6.4150533    -0.7900654    -1.7785306
H           4.7888332    -1.1678538    -2.3934087
H           5.3301222    -1.8776861    -0.8591190
C           5.5411716     1.3518435    -0.6346732
H           6.5207103     1.4819707    -1.0741594
C           4.7651318     2.2405431     0.0851327
H           5.0437223     3.2424870     0.3822761
O           3.1780620    -2.0187698     0.1834603
25
285_C8H13N3O_14-0-1-2 (45,) energy =    -552.1478688
C           2.7493003    -0.8461298    -0.0609466
N           1.3761324    -0.5658782     0.0003067
C           0.7718106     0.4141766    -0.9010808
H          -0.0737078     0.9150348    -0.4136557
H           0.3915869    -0.0751763    -1.8116138
H           1.5082976     1.1614588    -1.1947726
C           0.5115625    -1.7039197     0.2948355
H           0.9862567    -2.3359624     1.0450089
H           0.3198572    -2.3183676    -0.5975654
H          -0.4457939    -1.3326224     0.6763261
C           3.5748549     1.5831273     0.4168380
N           2.5666192     2.0627737     1.2562652
H           1.7307204     1.4920452     1.2633389
H           2.3558972     3.0468863     1.1446725
C           3.6519370     0.3055154    -0.1600691
N           4.9117003     0.1996353    -0.7589819
C           5.4208921    -0.9477236    -1.4950041
H           6.4352664    -0.7154059    -1.8279017
H           4.8003273    -1.1577391    -2.3733227
H           5.4258524    -1.8337099    -0.8594744
C           5.5661794     1.3816230    -0.6114193
H           6.5511855     1.5183450    -1.0365643
C           4.7839803     2.2600265     0.1159843
H           5.0598305     3.2582978     0.4276600
O           3.1576786    -2.0060923     0.0279720
25
285_C8H13N3O_14-0-1-2 (60,) energy =    -552.1473812
C           2.7174292    -0.8554963    -0.1279315
N           1.3501483    -0.5246510     0.0562332
C           0.7319342     0.3428260    -0.9542568
H          -0.1869816     0.7851353    -0.5528492
H           0.4677483    -0.2240418    -1.8614201
H           1.4169373     1.1441664    -1.2337768
C           0.5026853    -1.6681602     0.3946824
H           0.9805506    -2.2581727     1.1774033
H           0.3251673    -2.3274139    -0.4677210
H          -0.4602372    -1.2932649     0.7573050
C           3.5569516     1.5432523     0.4430027
N           2.5325609     2.0104625     1.2620969
H           1.6941195     1.4431898     1.2338722
H           2.3447159     3.0024165     1.1944330
C           3.6396406     0.2741205    -0.1586977
N           4.9092128     0.1777369    -0.7435178
C           5.4326229    -0.9568723    -1.4895515
H           6.4337806    -0.6973259    -1.8422456
H           4.7992159    -1.1823461    -2.3536715
H           5.4741493    -1.8456144    -0.8587111
C           5.5656230     1.3506901    -0.5538882
H           6.5602634     1.4918672    -0.9547521
C           4.7750012     2.2178493     0.1794890
H           5.0504498     3.2083949     0.5151064
O           3.0828032    -2.0306028    -0.1732501
25
285_C8H13N3O_14-0-1-2 (75,) energy =    -552.1457162
C           2.6956238    -0.8287286    -0.2408736
N           1.3398912    -0.4603797     0.0630995
C           0.6792321     0.2767837    -1.0265687
H          -0.2793038     0.6713435    -0.6719756
H           0.4842639    -0.3694768    -1.8977004
H           1.3055387     1.1130300    -1.3459115
C           0.5272989    -1.6046536     0.4893527
H           1.0381156    -2.1358793     1.2945606
H           0.3398200    -2.3184311    -0.3253159
H          -0.4313415    -1.2279052     0.8611605
C           3.5680787     1.5180230     0.4598570
N           2.5300428     1.9757983     1.2570707
H           1.6818845     1.4267906     1.1781258
H           2.3828227     2.9761399     1.2551589
C           3.6471135     0.2628255    -0.1796299
N           4.9283596     0.1712989    -0.7469786
C           5.4567865    -0.9438968    -1.5185117
H           6.4659714    -0.6798586    -1.8446389
H           4.8365362    -1.1391556    -2.3985589
H           5.4831749    -1.8533569    -0.9167222
C           5.5946602     1.3259558    -0.5010539
H           6.6015031     1.4660524    -0.8710697
C           4.8006106     2.1812923     0.2437045
H           5.0827800     3.1572275     0.6145980
O           3.0014514    -2.0009215    -0.4554670
25
285_C8H13N3O_14-0-1-2 (90,) energy =    -552.1435325
C           2.6674637    -0.7773080    -0.3678023
N           1.3201560    -0.3894241     0.0260618
C           0.5963983     0.1841909    -1.1226021
H          -0.3816250     0.5480610    -0.7894709
H           0.4397066    -0.5556386    -1.9241497
H           1.1608528     1.0278517    -1.5308034
C           0.5742293    -1.5261402     0.5843297
H           1.1275995    -1.9450787     1.4285828
H           0.4051376    -2.3261820    -0.1493814
H          -0.3924830    -1.1604185     0.9460807
C           3.5846416     1.4967242     0.4837503
N           2.5322631     1.9489222     1.2556661
H           1.6737636     1.4269597     1.1112311
H           2.4263766     2.9521165     1.3192684
C           3.6509587     0.2627105    -0.2057214
N           4.9465511     0.1659878    -0.7464098
C           5.4747477    -0.9278865    -1.5482820
H           6.5012101    -0.6749618    -1.8263529
H           4.8807924    -1.0706772    -2.4553154
H           5.4606697    -1.8636945    -0.9873659
C           5.6306646     1.2909745    -0.4307833
H           6.6517166     1.4206155    -0.7643481
C           4.8377940     2.1362401     0.3276369
H           5.1332958     3.0900065     0.7430465
O           2.9085482    -1.9176822    -0.7594323
25
285_C8H13N3O_14-0-1-2 (105,) energy =    -552.1420968
C           2.6465915    -0.7167197    -0.5133702
N           1.3041899    -0.3307911    -0.0554600
C           0.4925848     0.0588277    -1.2214326
H          -0.4917211     0.3948095    -0.8777005
H           0.3560397    -0.7712789    -1.9320818
H           0.9786048     0.8896167    -1.7434101
C           0.6683899    -1.4413193     0.6700991
H           1.2817607    -1.7062356     1.5364759
H           0.5384649    -2.3362710     0.0455077
H          -0.3112383    -1.1089130     1.0294760
C           3.6095609     1.4638075     0.5056525
N           2.5421149     1.9152350     1.2516612
H           1.6742768     1.4347305     1.0264441
H           2.4749801     2.9172134     1.3689428
C           3.6600213     0.2622083    -0.2458839
N           4.9717727     0.1507229    -0.7485733
C           5.4955772    -0.9193191    -1.5849910
H           6.5422219    -0.6915333    -1.8036202
H           4.9370015    -0.9939638    -2.5214178
H           5.4253440    -1.8820446    -1.0754799
C           5.6786714     1.2331186    -0.3497623
H           6.7151457     1.3455954    -0.6395520
C           4.8871152     2.0664609     0.4237470
H           5.1984479     2.9890374     0.8942273
O           2.8316862    -1.7962669    -1.0721178
25
285_C8H13N3O_14-0-1-2 (120,) energy =    -552.1420426
C           2.6150602    -0.6363201    -0.6658153
N           1.2804427    -0.2674321    -0.1642595
C           0.3668384    -0.0585910    -1.2981352
H          -0.6082037     0.2582888    -0.9126004
H           0.2335800    -0.9645963    -1.9075865
H           0.7599494     0.7378360    -1.9383287
C           0.7794873    -1.3128297     0.7410454
H           1.4648430    -1.4168928     1.5882370
H           0.6824236    -2.2891359     0.2425264
H          -0.2001320    -1.0106967     1.1265866
C           3.6186515     1.4314499     0.5296210
N           2.5306846     1.8927359     1.2390634
H           1.6586070     1.4719864     0.9223458
H           2.5038593     2.8912041     1.3992679
C           3.6566950     0.2697535    -0.2841247
N           4.9859272     0.1296069    -0.7316643
C           5.5088263    -0.9194628    -1.5950066
H           6.5771485    -0.7349096    -1.7360061
H           5.0058370    -0.9166875    -2.5647128
H           5.3625934    -1.9033463    -1.1447588
C           5.7153925     1.1575577    -0.2406243
H           6.7686375     1.2405195    -0.4746488
C           4.9213678     1.9828827     0.5390839
H           5.2458540     2.8672818     1.0700785
O           2.7614677    -1.6311182    -1.3740321
25
285_C8H13N3O_14-0-1-2 (135,) energy =    -552.1437547
C           2.5742355    -0.5383463    -0.8331104
N           1.2547665    -0.2283634    -0.2921549
C           0.2371057    -0.1879189    -1.3477512
H          -0.7066594     0.1520024    -0.9077213
H           0.0756874    -1.1632825    -1.8288969
H           0.5406673     0.5287989    -2.1161045
C           0.9017776    -1.1346210     0.8077814
H           1.6670380    -1.0765276     1.5877419
H           0.8119246    -2.1814530     0.4747770
H          -0.0546007    -0.8223243     1.2411078
C           3.5943611     1.3935585     0.5622675
N           2.4816857     1.8612085     1.2373856
H           1.6164444     1.5268743     0.8160636
H           2.4949379     2.8532810     1.4401347
C           3.6328193     0.2890540    -0.3234024
N           4.9755491     0.1272090    -0.7144129
C           5.5058674    -0.8872383    -1.6142753
H           6.5868251    -0.7395599    -1.6842964
H           5.0562769    -0.8055706    -2.6055872
H           5.2999714    -1.8907256    -1.2343703
C           5.7174991     1.0890145    -0.1170817
H           6.7838768     1.1442669    -0.2917930
C           4.9134279     1.8918403     0.6752685
H           5.2398228     2.7285392     1.2777111
O           2.7083347    -1.3904143    -1.7106832
25
285_C8H13N3O_14-0-1-2 (150,) energy =    -552.1476965
C           2.4758230    -0.4611244    -1.0240728
N           1.1884548    -0.3058217    -0.4519214
C           0.0738181    -0.4026732    -1.3877111
H          -0.8016206     0.0812633    -0.9399514
H          -0.1913549    -1.4417968    -1.6355795
H           0.3352933     0.1067454    -2.3163921
C           0.9410321    -0.8589564     0.8778501
H           1.8157071    -0.7073032     1.5122413
H           0.7174495    -1.9371574     0.8307456
H           0.0873816    -0.3531550     1.3431924
C           3.5044948     1.3580512     0.5265536
N           2.3651729     1.9241174     1.0972183
H           1.5261195     1.7059054     0.5670796
H           2.4558602     2.9194657     1.2679420
C           3.5468431     0.2607764    -0.3556622
N           4.8977476     0.0223071    -0.6463011
C           5.4281631    -1.0277912    -1.5041430
H           6.5191717    -0.9796697    -1.4598354
H           5.0864234    -0.8997803    -2.5320310
H           5.0998938    -2.0124157    -1.1588424
C           5.6545439     0.9250676     0.0261313
H           6.7328900     0.9055693    -0.0563791
C           4.8388760     1.7713077     0.7570195
H           5.1633554     2.5865500     1.3894840
O           2.6214431    -1.0421053    -2.1022088
25
285_C8H13N3O_14-0-1-2 (165,) energy =    -552.1506376
C           2.4466606    -0.3066876    -1.1052533
N           1.1742604    -0.2633839    -0.5083351
C           0.0587129    -0.5663311    -1.3997570
H          -0.8634563    -0.1817654    -0.9509339
H          -0.0580264    -1.6469018    -1.5708328
H           0.2245450    -0.0893560    -2.3659799
C           0.9922140    -0.7539709     0.8593768
H           1.8756862    -0.5424901     1.4599825
H           0.8083632    -1.8400733     0.8641752
H           0.1317437    -0.2604759     1.3244893
C           3.5191294     1.3782843     0.5654483
N           2.3887484     1.9845300     1.1219618
H           1.5586317     1.8480994     0.5523654
H           2.5303763     2.9672662     1.3284676
C           3.5341531     0.3115374    -0.3497185
N           4.8767696     0.0277576    -0.6254611
C           5.3753092    -1.0129802    -1.5129091
H           6.4664295    -1.0148847    -1.4524454
H           5.0534657    -0.8318785    -2.5391219
H           5.0010525    -1.9948691    -1.2070017
C           5.6595838     0.8644774     0.1031458
H           6.7373294     0.7914633     0.0496774
C           4.8650525     1.7187042     0.8470074
H           5.2095139     2.4935094     1.5186322
O           2.5939680    -0.7476951    -2.2483681
25
285_C8H13N3O_14-0-1-2 (180,) energy =    -552.1502927
C           2.4086187    -0.1381496    -1.1616573
N           1.1420171    -0.1942189    -0.5643654
C           0.0837790    -0.7167386    -1.4273525
H          -0.8865450    -0.4538984    -0.9940084
H           0.1427041    -1.8107074    -1.5266200
H           0.1732594    -0.2819700    -2.4224530
C           0.9967629    -0.6394733     0.8262238
H           1.8190626    -0.2826782     1.4415346
H           0.9583396    -1.7388271     0.8811273
H           0.0614596    -0.2466554     1.2394474
C           3.5435263     1.4184325     0.5951727
N           2.4375247     2.0711021     1.1554732
H           1.6130320     2.0201388     0.5641455
H           2.6363741     3.0345680     1.4023005
C           3.5137340     0.3775491    -0.3462488
N           4.8423670     0.0411431    -0.6252386
C           5.2963607    -0.9984289    -1.5375076
H           6.3864848    -1.0466607    -1.4806302
H           4.9796054    -0.7783244    -2.5574675
H           4.8838869    -1.9717949    -1.2526510
C           5.6601593     0.8093673     0.1411483
H           6.7327220     0.6764636     0.1021913
C           4.9015461     1.6788146     0.9037369
H           5.2768205     2.4132869     1.6036178
O           2.5641655    -0.4750687    -2.3389102
