19
206_C4H11NO2S_2-0-7-8 (-165,) energy =    -762.3694365
C           1.2804072    -0.3166740    -0.3147309
H           1.0996786    -0.2534949     0.7625241
C           0.0385095    -0.7969722    -1.0623055
H          -0.2776423    -1.7782538    -0.6999319
H           0.2299469    -0.8694230    -2.1372054
H          -0.7780388    -0.0840292    -0.9074365
H           1.6426247     0.6532092    -0.6646441
S           2.6713671    -1.4671565    -0.5429760
N           3.7283122    -0.9520359     0.6966141
C           5.1468149    -0.8894108     0.3184272
H           5.2444094    -0.4177282    -0.6585914
H           5.6215353    -1.8812305     0.2860081
H           5.6624883    -0.2776890     1.0657486
C           3.4940444    -1.5982926     1.9932996
H           2.4323362    -1.5684703     2.2492928
H           4.0444846    -1.0337948     2.7525645
H           3.8234788    -2.6458626     2.0104752
O           2.1824076    -2.8256011    -0.2601740
O           3.3206124    -1.1645748    -1.8242593
19
206_C4H11NO2S_2-0-7-8 (-150,) energy =    -762.3680112
C           1.3116153    -0.2607161    -0.4087031
H           1.2540675    -0.0456977     0.6620877
C           0.0099969    -0.8710879    -0.9213716
H          -0.2163689    -1.8025993    -0.3977667
H           0.0639626    -1.0858353    -1.9929525
H          -0.8098626    -0.1636218    -0.7571839
H           1.5938114     0.6572340    -0.9300074
S           2.7277165    -1.3935723    -0.6366074
N           3.7244449    -0.9432332     0.6777804
C           5.1630988    -0.9205150     0.3798037
H           5.3298206    -0.4217847    -0.5742689
H           5.6047700    -1.9273451     0.3404704
H           5.6572151    -0.3509974     1.1735788
C           3.3968132    -1.6266124     1.9341747
H           2.3246053    -1.5623905     2.1364386
H           3.9270221    -1.1133086     2.7425238
H           3.6831731    -2.6868419     1.9275277
O           2.2422142    -2.7702412    -0.4501312
O           3.4358559    -1.0204182    -1.8669542
19
206_C4H11NO2S_2-0-7-8 (-135,) energy =    -762.3664417
C           1.3476460    -0.2150375    -0.4980715
H           1.4010071     0.1679880     0.5242746
C           0.0316439    -0.9387797    -0.7648304
H          -0.0972876    -1.7872509    -0.0888427
H          -0.0190458    -1.3161659    -1.7900143
H          -0.7989201    -0.2399754    -0.6162000
H           1.5230773     0.6172947    -1.1841910
S           2.8064808    -1.3078009    -0.7229978
N           3.7307595    -0.9176624     0.6662075
C           5.1843786    -0.9520580     0.4500929
H           5.4280360    -0.4141653    -0.4654916
H           5.5813184    -1.9760099     0.3833279
H           5.6562088    -0.4470290     1.2989996
C           3.3045777    -1.6372579     1.8721664
H           2.2263278    -1.5298292     2.0195832
H           3.8102175    -1.1824282     2.7296800
H           3.5434423    -2.7085982     1.8350873
O           2.3526459    -2.7063311    -0.6536835
O           3.5691828    -0.8393343    -1.8862282
19
206_C4H11NO2S_2-0-7-8 (-120,) energy =    -762.3658142
C           1.5609359    -0.0491840    -0.7670266
H           1.8651680     0.6494008     0.0159224
C           0.0631477    -0.3379570    -0.7138436
H          -0.2263580    -0.7514869     0.2552026
H          -0.2344676    -1.0506355    -1.4871035
H          -0.4860625     0.5962620    -0.8740174
H           1.8709261     0.3403489    -1.7398110
S           2.5599098    -1.5760560    -0.5314280
N           3.4579932    -1.1811400     0.8760304
C           4.6163155    -0.3211456     0.6022807
H           4.3131415     0.5524048     0.0184827
H           5.4138698    -0.8432366     0.0564402
H           5.0056544     0.0319370     1.5622925
C           3.7859773    -2.3417930     1.7169276
H           2.8910835    -2.9447697     1.8671057
H           4.1284234    -1.9609614     2.6844003
H           4.5783238    -2.9712172     1.2849268
O           1.6751775    -2.6851005    -0.1539395
O           3.4492627    -1.7085572    -1.6966838
19
206_C4H11NO2S_2-0-7-8 (-105,) energy =    -762.3666028
C           1.5693378    -0.0686378    -0.8646062
H           1.9914897     0.7241780    -0.2423189
C           0.1019926    -0.3376860    -0.5470993
H          -0.0348672    -0.6137909     0.5020837
H          -0.2925132    -1.1479482    -1.1642090
H          -0.4803751     0.5689940    -0.7446430
H           1.7148325     0.1942359    -1.9160389
S           2.6232656    -1.5521444    -0.6252394
N           3.4243641    -1.1705932     0.8411269
C           4.5941212    -0.3020419     0.6618317
H           4.3333400     0.5709995     0.0577200
H           5.4351255    -0.8170614     0.1784699
H           4.9043108     0.0496444     1.6507965
C           3.6893539    -2.3310728     1.7035354
H           2.7884996    -2.9385065     1.7829498
H           3.9547566    -1.9515040     2.6954330
H           4.5145912    -2.9575357     1.3332962
O           1.7730580    -2.7163389    -0.3499542
O           3.5869344    -1.5851934    -1.7368742
19
206_C4H11NO2S_2-0-7-8 (-90,) energy =    -762.3683234
C           1.5849561    -0.1497217    -0.9686202
H           2.0902572     0.7190801    -0.5385198
C           0.1850145    -0.3618878    -0.4038579
H           0.2109754    -0.4881539     0.6826676
H          -0.2805087    -1.2478629    -0.8409220
H          -0.4346077     0.5118723    -0.6332073
H           1.5687328    -0.0307364    -2.0564630
S           2.6846238    -1.5840326    -0.7071976
N           3.3842025    -1.2054521     0.8095286
C           4.5518355    -0.3204781     0.7191568
H           4.3265697     0.5489145     0.0964670
H           5.4339220    -0.8239907     0.3014645
H           4.7812328     0.0342394     1.7289032
C           3.5988801    -2.3636787     1.6888039
H           2.7039088    -2.9846977     1.6988482
H           3.7827230    -1.9829072     2.6985981
H           4.4586107    -2.9774713     1.3815022
O           1.8692538    -2.7888921    -0.5152699
O           3.7092812    -1.5394253    -1.7617632
19
206_C4H11NO2S_2-0-7-8 (-75,) energy =    -762.3698466
C           1.5643437    -0.1716880    -1.0830940
H           2.1095647     0.7457395    -0.8430400
C           0.2747194    -0.3216250    -0.2848160
H           0.4772295    -0.3191975     0.7903587
H          -0.2321543    -1.2549003    -0.5411772
H          -0.3947120     0.5153079    -0.5108756
H           1.3824045    -0.1800693    -2.1629208
S           2.7270383    -1.5472350    -0.8319766
N           3.3403014    -1.1991546     0.7259539
C           4.4942245    -0.2922321     0.7274603
H           4.2941709     0.5827246     0.1045588
H           5.4114340    -0.7733055     0.3620584
H           4.6501178     0.0492060     1.7556915
C           3.5093461    -2.3653231     1.6037306
H           2.6294219    -3.0038532     1.5365979
H           3.6085107    -1.9969099     2.6299613
H           4.4018332    -2.9581297     1.3542779
O           1.9627159    -2.7956355    -0.7253760
O           3.7886601    -1.4038580    -1.8390225
19
206_C4H11NO2S_2-0-7-8 (-60,) energy =    -762.3700024
C           1.5546486    -0.2341048    -1.1698355
H           2.1105821     0.7080821    -1.1428119
C           0.3891693    -0.2528170    -0.1879049
H           0.7383293    -0.0892547     0.8349185
H          -0.1361790    -1.2109467    -0.2286694
H          -0.3192102     0.5416886    -0.4462837
H           1.2333934    -0.4022198    -2.2031117
S           2.7686246    -1.5564817    -0.8855102
N           3.2923208    -1.2253323     0.7079371
C           4.4035039    -0.2688385     0.7858013
H           4.1930421     0.6115979     0.1742126
H           5.3576709    -0.7002115     0.4543251
H           4.4956902     0.0538867     1.8276609
C           3.4748265    -2.4078571     1.5610148
H           2.6269064    -3.0805261     1.4394341
H           3.5152969    -2.0638941     2.5996271
H           4.4019166    -2.9547280     1.3341684
O           2.0478551    -2.8346570    -0.8369519
O           3.8658779    -1.3516706    -1.8417527
19
206_C4H11NO2S_2-0-7-8 (-45,) energy =    -762.3685752
C           1.5276954    -0.3077488    -1.2362484
H           2.0669365     0.6235882    -1.4332378
C           0.5021574    -0.1533939    -0.1189823
H           0.9707168     0.1955927     0.8036421
H           0.0020184    -1.1049082     0.0851816
H          -0.2585737     0.5736101    -0.4242448
H           1.0758928    -0.6411142    -2.1760393
S           2.7974158    -1.5779162    -0.9224461
N           3.2471111    -1.2747400     0.6965924
C           4.2912063    -0.2535188     0.8444323
H           4.0383844     0.6365157     0.2629095
H           5.2798273    -0.6080352     0.5227868
H           4.3358397     0.0314511     1.9003088
C           3.4709460    -2.4723208     1.5173809
H           2.6687649    -3.1883210     1.3443023
H           3.4561173    -2.1615426     2.5671071
H           4.4358893    -2.9563552     1.3060790
O           2.1283113    -2.8852460    -0.9268034
O           3.9171757    -1.3082831    -1.8357108
19
206_C4H11NO2S_2-0-7-8 (-30,) energy =    -762.3662493
C           1.5052340    -0.3856212    -1.2806581
H           2.0041444     0.4974247    -1.6897647
C           0.6206358    -0.0369071    -0.0886371
H           1.1831368     0.4729106     0.6960958
H           0.1660074    -0.9329858     0.3439034
H          -0.1852758     0.6248780    -0.4257945
H           0.9442569    -0.8656688    -2.0883436
S           2.8354266    -1.5985236    -0.9431891
N           3.2113229    -1.3303334     0.7001462
C           4.1815053    -0.2504448     0.9173004
H           3.8870102     0.6431336     0.3608302
H           5.1998546    -0.5272802     0.6125951
H           4.1781868    -0.0035420     1.9836965
C           3.4921730    -2.5428191     1.4806070
H           2.7425961    -3.3009778     1.2584882
H           3.4307707    -2.2746768     2.5403728
H           4.4916250    -2.9551808     1.2778697
O           2.2373625    -2.9385157    -1.0099040
O           3.9741999    -1.2470563    -1.8040289
19
206_C4H11NO2S_2-0-7-8 (-15,) energy =    -762.3640550
C           1.4048715    -0.4658782    -1.3202816
H           1.8067006     0.3545030    -1.9208403
C           0.6736803     0.0467049    -0.0838644
H           1.3119818     0.6840539     0.5321700
H           0.3110998    -0.7752647     0.5391545
H          -0.1908619     0.6378746    -0.4073392
H           0.7585747    -1.0777370    -1.9557904
S           2.8404573    -1.5752946    -1.0097353
N           3.1858102    -1.3627809     0.6475381
C           4.1447997    -0.2888511     0.9312260
H           3.8817521     0.6144857     0.3762491
H           5.1763023    -0.5632436     0.6716812
H           4.0908180    -0.0622450     2.0009614
C           3.4358805    -2.5957236     1.4047006
H           2.6927949    -3.3465081     1.1403739
H           3.3423221    -2.3549361     2.4688301
H           4.4394668    -3.0077091     1.2230380
O           2.3630751    -2.9568176    -1.1557390
O           3.9576768    -1.0795766    -1.8264823
19
206_C4H11NO2S_2-0-7-8 (0,) energy =    -762.3630462
C           1.3230971    -0.5350570    -1.3391646
H           1.5838557     0.2051584    -2.0999697
C           0.7138472     0.1120227    -0.0997265
H           1.3784313     0.8612638     0.3388961
H           0.4822123    -0.6287320     0.6692546
H          -0.2173004     0.6135327    -0.3876959
H           0.6473032    -1.2712157    -1.7824324
S           2.8849101    -1.4823175    -1.0793327
N           3.2092686    -1.3450964     0.5878122
C           4.1770537    -0.3053975     0.9537584
H           3.9742808     0.6158388     0.4056398
H           5.2141697    -0.6050055     0.7493981
H           4.0670818    -0.1047647     2.0246111
C           3.3822365    -2.6061678     1.3176268
H           2.6304056    -3.3268642     0.9992410
H           3.2483953    -2.3955553     2.3840334
H           4.3784101    -3.0471347     1.1672309
O           2.5842766    -2.8957812    -1.3417090
O           3.9401625    -0.7840830    -1.8275047
19
206_C4H11NO2S_2-0-7-8 (15,) energy =    -762.3640550
C           0.8016514    -1.4582078    -0.3686007
H           0.4042810    -1.9856628    -1.2402831
C           0.8865953     0.0470432    -0.5990628
H           1.5450073     0.2894914    -1.4374921
H           1.2530767     0.5746118     0.2843985
H          -0.1162360     0.4235952    -0.8316329
H           0.1792921    -1.6996642     0.4971536
S           2.3982166    -2.3214219    -0.0620192
N           3.4959228    -1.0635853     0.2899353
C           4.8012663    -1.1585479    -0.3756761
H           4.6615854    -1.4227999    -1.4227588
H           5.4629607    -1.9009368     0.0943645
H           5.2769014    -0.1742193    -0.3126557
C           3.5808908    -0.7175399     1.7134865
H           2.5813139    -0.6159731     2.1421367
H           4.0894000     0.2484807     1.7960743
H           4.1311378    -1.4666538     2.2988999
O           2.2111200    -3.1746037     1.1203797
O           2.8331041    -2.9001467    -1.3402083
19
206_C4H11NO2S_2-0-7-8 (30,) energy =    -762.3662493
C           0.8349481    -1.4295061    -0.2415149
H           0.3016530    -2.0633058    -0.9566310
C           0.9024211     0.0249266    -0.6943972
H           1.4346020     0.1202768    -1.6454110
H           1.4053714     0.6543186     0.0425113
H          -0.1173455     0.4007305    -0.8357326
H           0.3486268    -1.5305740     0.7328191
S           2.4501100    -2.2784030    -0.0832223
N           3.5240417    -1.0172974     0.3291590
C           4.8488937    -1.0967140    -0.3005855
H           4.7361742    -1.3288529    -1.3586086
H           5.4954520    -1.8540928     0.1667351
H           5.3236416    -0.1157467    -0.1952677
C           3.5702402    -0.7249606     1.7668566
H           2.5583066    -0.6165335     2.1657333
H           4.0924829     0.2276849     1.9006539
H           4.0866621    -1.5052500     2.3421613
O           2.3289629    -3.2433416     1.0193185
O           2.8457422    -2.7267453    -1.4249282
19
206_C4H11NO2S_2-0-7-8 (45,) energy =    -762.3685752
C           0.8305675    -1.3668025    -0.1737661
H           0.1907273    -2.0781516    -0.7057922
C           0.8856801    -0.0064522    -0.8595126
H           1.2825279    -0.0977135    -1.8750835
H           1.5150260     0.6921421    -0.3041164
H          -0.1268329     0.4071082    -0.9244495
H           0.4706942    -1.2952820     0.8569377
S           2.4308417    -2.2370723    -0.0980372
N           3.5096125    -1.0080752     0.3931253
C           4.8203697    -1.0258751    -0.2698908
H           4.6859078    -1.1784173    -1.3398242
H           5.4836313    -1.8101203     0.1239325
H           5.2898029    -0.0512492    -0.1011750
C           3.5857751    -0.8276137     1.8479492
H           2.5827263    -0.7572700     2.2759603
H           4.1057321     0.1155920     2.0430986
H           4.1196716    -1.6460960     2.3494973
O           2.3131835    -3.2742510     0.9368697
O           2.8084745    -2.5925005    -1.4720443
19
206_C4H11NO2S_2-0-7-8 (60,) energy =    -762.3700024
C           0.8447296    -1.2907276    -0.1061628
H           0.1233828    -2.0491962    -0.4278925
C           0.8382551    -0.0621070    -1.0080144
H           1.0727452    -0.3378861    -2.0398207
H           1.5707403     0.6747625    -0.6684228
H          -0.1550871     0.3991434    -0.9901500
H           0.6271935    -1.0455905     0.9379130
S           2.4261748    -2.1864283    -0.1059389
N           3.5130677    -0.9939883     0.4594813
C           4.8130903    -0.9626471    -0.2248820
H           4.6614559    -1.0359933    -1.3009218
H           5.4819672    -1.7735788     0.0991832
H           5.2865235    -0.0031500     0.0072651
C           3.6185231    -0.9260239     1.9223244
H           2.6250376    -0.9008785     2.3760384
H           4.1339377     0.0050444     2.1784159
H           4.1713399    -1.7748151     2.3469934
O           2.3063454    -3.2789673     0.8699227
O           2.7923610    -2.4657938    -1.5000196
19
206_C4H11NO2S_2-0-7-8 (75,) energy =    -762.3698466
C           0.8685707    -1.1971268    -0.0594358
H           0.1028237    -1.9722001    -0.1693960
C           0.7551573    -0.1245027    -1.1362244
H           0.8512949    -0.5645062    -2.1316136
H           1.5324792     0.6358099    -1.0149299
H          -0.2211269     0.3664661    -1.0619493
H           0.7919418    -0.7928646     0.9541052
S           2.4318454    -2.1233888    -0.1319601
N           3.5353080    -0.9867213     0.5120618
C           4.8341960    -0.9229434    -0.1719269
H           4.6798585    -0.9244915    -1.2501994
H           5.4962983    -1.7595356     0.0962401
H           5.3177920     0.0147871     0.1204905
C           3.6443933    -1.0193156     1.9753081
H           2.6525877    -1.0097719     2.4333549
H           4.1751241    -0.1157139     2.2914901
H           4.1842876    -1.9034194     2.3401341
O           2.2960242    -3.2705039     0.7776657
O           2.7938196    -2.3256679    -1.5398359
19
206_C4H11NO2S_2-0-7-8 (90,) energy =    -762.3683298
C           0.9069701    -1.1108520    -0.0174450
H           0.1514839    -1.8967982     0.0809647
C           0.6250137    -0.2063043    -1.2117898
H           0.6009214    -0.7838522    -2.1383015
H           1.3892531     0.5704224    -1.3110854
H          -0.3455850     0.2827073    -1.0749778
H           0.9556618    -0.5656805     0.9287339
S           2.4717062    -2.0383033    -0.1770703
N           3.5872720    -0.9595274     0.5487380
C           4.9082752    -0.9293350    -0.0959420
H           4.7852726    -0.8584271    -1.1760778
H           5.5161722    -1.8156782     0.1390661
H           5.4326130    -0.0385955     0.2646212
C           3.6584070    -1.0782247     2.0101928
H           2.6569091    -1.0487538     2.4465693
H           4.2198161    -0.2178479     2.3877515
H           4.1492093    -2.0048059     2.3365830
O           2.3375771    -3.2529186     0.6420207
O           2.8321229    -2.1358799    -1.5961519
19
206_C4H11NO2S_2-0-7-8 (105,) energy =    -762.3666027
C           0.9005499    -0.9872378     0.0167909
H           0.1665492    -1.7333819     0.3334276
C           0.4660123    -0.2723857    -1.2585466
H           0.3181316    -0.9807996    -2.0766166
H           1.2107876     0.4621256    -1.5772951
H          -0.4782403     0.2512731    -1.0730379
H           1.0766757    -0.2942256     0.8430421
S           2.4466575    -1.9501408    -0.2100404
N           3.5896418    -0.9578104     0.5938294
C           4.9263602    -0.9597529    -0.0175657
H           4.8338794    -0.8250429    -1.0946628
H           5.4852415    -1.8860607     0.1828264
H           5.4830353    -0.1161915     0.4030306
C           3.6167795    -1.1538304     2.0483474
H           2.6065065    -1.0926064     2.4615722
H           4.2114797    -0.3447475     2.4838649
H           4.0499341    -2.1205066     2.3383701
O           2.2784657    -3.2201945     0.5139034
O           2.8168796    -1.9529893    -1.6302267
19
206_C4H11NO2S_2-0-7-8 (120,) energy =    -762.3658166
C           0.9457373    -0.8982039     0.0205176
H           0.2775766    -1.5879154     0.5421056
C           0.3400002    -0.3873084    -1.2838461
H           0.0848986    -1.2109060    -1.9555443
H           1.0318878     0.2745580    -1.8100537
H          -0.5752890     0.1705990    -1.0577599
H           1.2136461    -0.0775864     0.6901510
S           2.4844813    -1.8631636    -0.2738186
N           3.6340908    -0.9474723     0.6122665
C           4.9904936    -0.9922648     0.0460540
H           4.9434227    -0.7927264    -1.0239354
H           5.4909067    -1.9578968     0.2124924
H           5.5756460    -0.2052117     0.5322443
C           3.6023584    -1.2195572     2.0551023
H           2.5824479    -1.1252769     2.4381599
H           4.2213459    -0.4658642     2.5517186
H           3.9763033    -2.2210804     2.3073078
O           2.2986103    -3.1918746     0.3317135
O           2.8696215    -1.7471295    -1.6855574
19
206_C4H11NO2S_2-0-7-8 (135,) energy =    -762.3663443
C           0.9944655    -0.7734480     0.0072828
H           0.4068689    -1.3698418     0.7093319
C           0.2340310    -0.4771351    -1.2835943
H          -0.0892827    -1.3966625    -1.7797924
H           0.8545247     0.0867368    -1.9832961
H          -0.6566040     0.1139118    -1.0447196
H           1.3233854     0.1476816     0.4943091
S           2.5138298    -1.7492540    -0.3290454
N           3.6649286    -0.9231607     0.6389077
C           5.0369448    -0.9988401     0.1143674
H           5.0335510    -0.7448590    -0.9451027
H           5.4907321    -1.9921737     0.2482723
H           5.6371307    -0.2622092     0.6577884
C           3.5735080    -1.2673898     2.0639501
H           2.5462337    -1.1460651     2.4187484
H           4.2066584    -0.5681146     2.6188403
H           3.8964821    -2.2959658     2.2752014
O           2.2918954    -3.1194985     0.1610031
O           2.9254733    -1.5266972    -1.7206695
19
206_C4H11NO2S_2-0-7-8 (150,) energy =    -762.3676456
C           1.0680306    -0.6577274    -0.0451867
H           0.5618390    -1.1085421     0.8121105
C           0.1740059    -0.5947375    -1.2826589
H          -0.1847823    -1.5886397    -1.5669902
H           0.7138826    -0.1672149    -2.1301876
H          -0.6967191     0.0322864    -1.0640510
H           1.4395092     0.3325178     0.2292841
S           2.5512818    -1.6768731    -0.3728044
N           3.7024608    -0.9401835     0.6615865
C           5.0798691    -0.9860202     0.1480204
H           5.0895613    -0.6659494    -0.8932168
H           5.5296388    -1.9872587     0.2236766
H           5.6757437    -0.2874098     0.7439110
C           3.5929079    -1.3765280     2.0600348
H           2.5624568    -1.2745704     2.4104038
H           4.2220904    -0.7176395     2.6664917
H           3.9104585    -2.4178954     2.2071061
O           2.2626706    -3.0577108     0.0468088
O           3.0047465    -1.4039214    -1.7424399
19
206_C4H11NO2S_2-0-7-8 (165,) energy =    -762.3690839
C           1.1272884    -0.5214734    -0.1310494
H           0.7064850    -0.7735039     0.8463680
C           0.1087198    -0.6742316    -1.2596747
H          -0.2809084    -1.6957486    -1.3040308
H           0.5619680    -0.4321148    -2.2240102
H          -0.7309426     0.0063598    -1.0849631
H           1.5426583     0.4884994    -0.0927449
S           2.5487548    -1.6277060    -0.3989146
N           3.6922475    -0.9777402     0.6948971
C           5.0726034    -0.9400217     0.1908271
H           5.0802458    -0.5455927    -0.8244041
H           5.5542967    -1.9290390     0.1959547
H           5.6424314    -0.2689275     0.8415237
C           3.5834244    -1.5141637     2.0577363
H           2.5472898    -1.4736329     2.4018201
H           4.1851626    -0.8796577     2.7160159
H           3.9346175    -2.5521335     2.1349713
O           2.1533640    -2.9871928     0.0004497
O           3.0688058    -1.3733250    -1.7484622
19
206_C4H11NO2S_2-0-7-8 (180,) energy =    -762.3698566
C           1.2022314    -0.4003039    -0.2228914
H           0.8949431    -0.4833129     0.8238994
C           0.0589828    -0.7276147    -1.1818164
H          -0.3211710    -1.7376798    -1.0054635
H           0.3925821    -0.6567007    -2.2208962
H          -0.7593742    -0.0160982    -1.0310419
H           1.6155595     0.5973406    -0.3909838
S           2.5884948    -1.5504156    -0.4591720
N           3.6983575    -0.9746831     0.7050561
C           5.0948395    -0.9022658     0.2538905
H           5.1352546    -0.4682988    -0.7443140
H           5.5863322    -1.8862655     0.2366400
H           5.6347040    -0.2526219     0.9504663
C           3.5413706    -1.5751235     2.0352785
H           2.4926980    -1.5589544     2.3405019
H           4.1131384    -0.9693950     2.7455077
H           3.8974568    -2.6134266     2.0765078
O           2.1229055    -2.8999443    -0.1045262
O           3.1749566    -1.2901304    -1.7798738
