19
206_C4H11NO2S_0-7-8-9 (-165,) energy =    -762.3678829
C           1.1280824    -0.5326561    -0.1046565
H           0.8141047    -0.8920689     0.8778247
C           0.0603852    -0.8030919    -1.1651033
H          -0.1649393    -1.8714287    -1.2273054
H           0.3924471    -0.4577995    -2.1476745
H          -0.8573913    -0.2691732    -0.8989135
H           1.3882303     0.5269844    -0.0387302
S           2.6610222    -1.4076835    -0.5429532
N           3.7584588    -0.8208272     0.6448421
C           5.1532770    -1.1249110     0.2672130
H           5.3340230    -0.7813521    -0.7516123
H           5.3840392    -2.1976753     0.3388243
H           5.8067763    -0.5732969     0.9494366
C           3.4616712    -1.3121491     2.0016393
H           2.4532138    -1.0223880     2.3049320
H           4.1650949    -0.8289173     2.6861339
H           3.5628520    -2.4026804     2.0897093
O           2.4176232    -2.8508878    -0.3729254
O           3.1410996    -0.8969889    -1.8319157
19
206_C4H11NO2S_0-7-8-9 (-150,) energy =    -762.3694780
C           1.1880840    -0.4325701    -0.1883661
H           0.8965548    -0.5950808     0.8527976
C           0.0575569    -0.7883799    -1.1529352
H          -0.2476202    -1.8309514    -1.0285286
H           0.3704096    -0.6372762    -2.1898618
H          -0.8061184    -0.1456654    -0.9542301
H           1.5285154     0.5992184    -0.3054408
S           2.6432057    -1.4719820    -0.5120922
N           3.7354846    -0.8975600     0.6776080
C           5.1464852    -1.0028252     0.2694604
H           5.2660375    -0.5949250    -0.7337667
H           5.5157005    -2.0388588     0.2865528
H           5.7376743    -0.4066089     0.9715001
C           3.4977470    -1.4674259     2.0119660
H           2.4511698    -1.3462709     2.3009902
H           4.1114032    -0.9093468     2.7258505
H           3.7538696    -2.5340259     2.0686091
O           2.2673457    -2.8708891    -0.2490944
O           3.2014422    -1.0928769    -1.8156968
19
206_C4H11NO2S_0-7-8-9 (-135,) energy =    -762.3698712
C           1.2246154    -0.3948586    -0.2470955
H           0.9328200    -0.4400290     0.8065213
C           0.0636253    -0.7445594    -1.1761288
H          -0.3212001    -1.7448810    -0.9596425
H           0.3805516    -0.7116816    -2.2224555
H          -0.7464516    -0.0212205    -1.0371931
H           1.6443500     0.5928331    -0.4538701
S           2.5986580    -1.5640397    -0.4613710
N           3.7014738    -0.9972085     0.7117983
C           5.0979487    -0.8945700     0.2680650
H           5.1349653    -0.4553964    -0.7279739
H           5.6085988    -1.8686715     0.2479559
H           5.6221057    -0.2380181     0.9702300
C           3.5450243    -1.6079643     2.0370498
H           2.4941293    -1.6112243     2.3345080
H           4.1023562    -0.9978091     2.7549714
H           3.9175209    -2.6406418     2.0742359
O           2.1121792    -2.9042822    -0.1004546
O           3.2014906    -1.3208904    -1.7779430
19
206_C4H11NO2S_0-7-8-9 (-120,) energy =    -762.3695907
C           1.2694950    -0.3586727    -0.3079362
H           0.9504573    -0.3089035     0.7375337
C           0.1113349    -0.6848859    -1.2486498
H          -0.3539367    -1.6366409    -0.9774211
H           0.4579739    -0.7487179    -2.2840275
H          -0.6459215     0.1034105    -1.1848002
H           1.7671796     0.5796370    -0.5675345
S           2.5578330    -1.6373536    -0.3873152
N           3.6808277    -1.0664480     0.7599833
C           5.0307936    -0.7771274     0.2638501
H           4.9747076    -0.3043148    -0.7157963
H           5.6515544    -1.6812292     0.1816779
H           5.5067957    -0.0867224     0.9683297
C           3.6480912    -1.7324110     2.0663268
H           2.6176897    -1.8854614     2.3897794
H           4.1480017    -1.0790898     2.7891016
H           4.1549688    -2.7073734     2.0556318
O           1.9707455    -2.8957094     0.0935839
O           3.1854212    -1.5582047    -1.7129327
19
206_C4H11NO2S_0-7-8-9 (-105,) energy =    -762.3695390
C           1.3177939    -0.3396527    -0.3782387
H           0.9500760    -0.1843868     0.6397799
C           0.1931427    -0.6501572    -1.3637148
H          -0.3610324    -1.5405046    -1.0531500
H           0.5915805    -0.8200211    -2.3678423
H          -0.5025591     0.1944281    -1.4037175
H           1.9000711     0.5367996    -0.6780410
S           2.4972162    -1.7177369    -0.2740348
N           3.6368546    -1.1094125     0.8409906
C           4.9125316    -0.6710556     0.2632163
H           4.7398316    -0.0911043    -0.6440519
H           5.5754323    -1.5117933     0.0153375
H           5.4103936    -0.0307533     0.9988509
C           3.7797857    -1.8641273     2.0916311
H           2.8009633    -2.1705762     2.4587455
H           4.2466300    -1.2031312     2.8295137
H           4.4054762    -2.7607810     1.9743675
O           1.8055543    -2.8522136     0.3519624
O           3.1392538    -1.8598654    -1.5881970
19
206_C4H11NO2S_0-7-8-9 (-90,) energy =    -762.3698744
C           1.3743391    -0.3193664    -0.4376973
H           0.9798276    -0.0381644     0.5419469
C           0.2708592    -0.6358788    -1.4453755
H          -0.3675716    -1.4454279    -1.0801782
H           0.6955685    -0.9339324    -2.4078617
H          -0.3505415     0.2525369    -1.5980541
H           2.0360112     0.4764931    -0.7927312
S           2.4178066    -1.7772184    -0.1433330
N           3.5781457    -1.1392234     0.9361261
C           4.7617443    -0.5691709     0.2811939
H           4.4648827     0.0949955    -0.5335531
H           5.4321229    -1.3378257    -0.1265220
H           5.3031012     0.0233460     1.0255705
C           3.8980809    -1.9934996     2.0879346
H           2.9797458    -2.4000933     2.5095069
H           4.3914303    -1.3671305     2.8382712
H           4.5694366    -2.8245751     1.8258963
O           1.6245245    -2.7613335     0.6036804
O           3.0519526    -2.1451883    -1.4183790
19
206_C4H11NO2S_0-7-8-9 (-75,) energy =    -762.3691085
C           1.4459542    -0.3291618    -0.5366424
H           1.0854083     0.1091767     0.3973174
C           0.3063324    -0.6916212    -1.4884368
H          -0.3864335    -1.3928393    -1.0149953
H           0.6933835    -1.1471600    -2.4039443
H          -0.2460399     0.2149885    -1.7557628
H           2.1553650     0.3581155    -1.0042538
S           2.3639736    -1.8260953    -0.0641665
N           3.5473263    -1.1903986     0.9881671
C           4.6393507    -0.4727175     0.3214722
H           4.2445167     0.2566055    -0.3889818
H           5.3246880    -1.1448954    -0.2135516
H           5.1971108     0.0734346     1.0886530
C           3.9999377    -2.1282235     2.0248666
H           3.1350340    -2.6212217     2.4678981
H           4.5152143    -1.5474393     2.7965309
H           4.6913043    -2.8893430     1.6337483
O           1.4871427    -2.6706662     0.7556336
O           2.9811503    -2.3708407    -1.2848973
19
206_C4H11NO2S_0-7-8-9 (-60,) energy =    -762.3668524
C           1.5633463    -0.3224772    -0.6888745
H           1.3412091     0.3298856     0.1600577
C           0.3045048    -0.6954052    -1.4728709
H          -0.4256229    -1.1877578    -0.8256476
H           0.5469857    -1.3670006    -2.3012986
H          -0.1471655     0.2130825    -1.8838878
H           2.3063547     0.1517423    -1.3333653
S           2.3211257    -1.8312944    -0.0088495
N           3.4954604    -1.2018832     1.0636834
C           4.5170913    -0.3490662     0.4465569
H           4.0554178     0.5017842    -0.0584017
H           5.1557012    -0.8897087    -0.2675747
H           5.1438789     0.0465245     1.2514415
C           4.0443473    -2.2328579     1.9569322
H           3.2226385    -2.8111605     2.3808769
H           4.5736789    -1.7239828     2.7683281
H           4.7420864    -2.9108087     1.4436264
O           1.3363913    -2.5257916     0.8282550
O           2.9519144    -2.5466714    -1.1323278
19
206_C4H11NO2S_0-7-8-9 (-45,) energy =    -762.3640755
C           1.6412895    -0.3545526    -0.7129723
H           1.4687969     0.4127100     0.0474236
C           0.3572477    -0.7072167    -1.4657229
H          -0.4165395    -1.0520957    -0.7754581
H           0.5433976    -1.4923981    -2.2037691
H          -0.0088638     0.1816181    -1.9892645
H           2.4280816    -0.0288975    -1.3965201
S           2.2537406    -1.8379996     0.1449643
N           3.4869173    -1.2201615     1.1601602
C           4.4174256    -0.2625694     0.5556651
H           3.8888129     0.6310127     0.2189951
H           4.9975088    -0.6828326    -0.2810472
H           5.1168920     0.0463353     1.3382853
C           4.1445578    -2.3034082     1.9062378
H           3.3798442    -2.9514868     2.3388271
H           4.7166071    -1.8503834     2.7214524
H           4.8179284    -2.9037632     1.2779344
O           1.2056692    -2.3527753     1.0333009
O           2.8217008    -2.7284399    -0.8835591
19
206_C4H11NO2S_0-7-8-9 (-30,) energy =    -762.3610234
C           1.6749389    -0.3752123    -0.7597907
H           1.5069668     0.4654386    -0.0803197
C           0.4087662    -0.7264001    -1.5432662
H          -0.4140360    -0.9666780    -0.8652094
H           0.5841639    -1.5833388    -2.1990866
H           0.1177211     0.1305878    -2.1589223
H           2.5106272    -0.1507705    -1.4261956
S           2.1589946    -1.8120131     0.2472645
N           3.4772488    -1.2415505     1.1869439
C           4.3296532    -0.1942688     0.6222525
H           3.7496081     0.7041309     0.4054891
H           4.8785846    -0.5040244    -0.2822113
H           5.0636971     0.0690848     1.3900082
C           4.2109857    -2.3670984     1.7815643
H           3.4986043    -3.0602076     2.2348076
H           4.8504285    -1.9674090     2.5743082
H           4.8264629    -2.9097193     1.0505847
O           1.0759133    -2.1347631     1.1824234
O           2.6231263    -2.8524736    -0.6882260
19
206_C4H11NO2S_0-7-8-9 (-15,) energy =    -762.3585367
C           1.7137448    -0.3956824    -0.8033497
H           1.5533401     0.5038656    -0.2028750
C           0.4686086    -0.7535595    -1.6170718
H          -0.3936586    -0.9015808    -0.9617448
H           0.6317224    -1.6675781    -2.1937003
H           0.2453418     0.0636749    -2.3102938
H           2.5889902    -0.2599877    -1.4432972
S           2.0802042    -1.7686146     0.3367721
N           3.4786300    -1.2698154     1.2038421
C           4.2687667    -0.1446251     0.7080718
H           3.6476117     0.7443376     0.5865199
H           4.8023213    -0.3488808    -0.2353528
H           5.0164081     0.0848819     1.4738787
C           4.2710801    -2.4246119     1.6441156
H           3.6144977    -3.1672976     2.1025076
H           4.9712758    -2.0724619     2.4078015
H           4.8279297    -2.9008225     0.8253436
O           0.9782440    -1.8829546     1.2979666
O           2.4233093    -2.9385504    -0.4906919
19
206_C4H11NO2S_0-7-8-9 (0,) energy =    -762.3576264
C           1.7617829    -0.4072331    -0.8107769
H           1.6347020     0.5532623    -0.3054711
C           0.5250482    -0.7745438    -1.6328362
H          -0.3644376    -0.8134554    -0.9985834
H           0.6541735    -1.7466210    -2.1153059
H           0.3692492    -0.0160631    -2.4068001
H           2.6633450    -0.3792923    -1.4287746
S           2.0122386    -1.6770772     0.4757225
N           3.4752420    -1.2572639     1.2794231
C           4.2127158    -0.0712449     0.8501747
H           3.5587994     0.8024986     0.8170808
H           4.7184753    -0.1847280    -0.1231901
H           4.9787604     0.1276387     1.6063066
C           4.3259011    -2.4235813     1.5495300
H           3.7287075    -3.2343482     1.9687022
H           5.0662973    -2.1199474     2.2962047
H           4.8423559    -2.7969890     0.6539789
O           0.9107677    -1.5469045     1.4354212
O           2.2226311    -2.9662981    -0.2026314
19
206_C4H11NO2S_0-7-8-9 (15,) energy =    -762.3590304
C           1.8188779    -0.4985901    -0.8726215
H           1.7921713     0.5182948    -0.4756173
C           0.5495609    -0.8284000    -1.6594463
H          -0.3371738    -0.7066864    -1.0319106
H           0.5778140    -1.8562838    -2.0300684
H           0.4681482    -0.1496403    -2.5147404
H           2.7169377    -0.6261944    -1.4849173
S           1.9545109    -1.6358447     0.5521812
N           3.4567290    -1.2997509     1.3263524
C           4.1347215    -0.0512849     0.9787536
H           3.4477747     0.7946720     1.0597196
H           4.5921572    -0.0578051    -0.0239129
H           4.9308781     0.1086560     1.7126371
C           4.3699094    -2.4501045     1.3842770
H           3.8276755    -3.3436938     1.6895030
H           5.1274219    -2.2223838     2.1411807
H           4.8714142    -2.6536639     0.4261630
O           0.8827674    -1.2553670     1.4776210
O           2.0242203    -3.0107153     0.0372756
19
206_C4H11NO2S_0-7-8-9 (30,) energy =    -762.3625304
C           1.8640607    -0.6376426    -0.9109978
H           1.9614794     0.4115189    -0.6246791
C           0.5550122    -0.8998817    -1.6563512
H          -0.3028240    -0.6124365    -1.0427845
H           0.4605074    -1.9575800    -1.9160439
H           0.5376852    -0.3105704    -2.5790828
H           2.7339424    -0.9306045    -1.5085558
S           1.9029741    -1.6199436     0.6307208
N           3.4255875    -1.3506671     1.3725534
C           4.0378457    -0.0431225     1.1304790
H           3.3066179     0.7517767     1.2990061
H           4.4702398     0.0580582     0.1223075
H           4.8418234     0.0923710     1.8608266
C           4.3864991    -2.4558142     1.2489053
H           3.8828612    -3.4040516     1.4263724
H           5.1520930    -2.3090924     2.0177974
H           4.8798302    -2.4912207     0.2644137
O           0.8895727    -1.0192206     1.5030996
O           1.8404108    -3.0440879     0.2811908
19
206_C4H11NO2S_0-7-8-9 (45,) energy =    -762.3663793
C           1.9215268    -0.7379560    -0.9540237
H           2.1372000     0.3179843    -0.7739819
C           0.5823790    -0.9270089    -1.6668087
H          -0.2310597    -0.4898862    -1.0815742
H           0.3706855    -1.9885650    -1.8204679
H           0.6144497    -0.4326279    -2.6433361
H           2.7478012    -1.1809370    -1.5206530
S           1.8905848    -1.5560806     0.6789549
N           3.4341042    -1.3538911     1.3718756
C           4.0019085    -0.0079089     1.2663613
H           3.2343405     0.7347666     1.4963882
H           4.4382253     0.1999750     0.2763928
H           4.7943282     0.0879054     2.0156596
C           4.4083906    -2.4167379     1.0964943
H           3.9203284    -3.3867056     1.1744159
H           5.1940523    -2.3507188     1.8562948
H           4.8773491    -2.3231476     0.1031469
O           0.9575605    -0.7776943     1.4987163
O           1.7030059    -2.9960771     0.4748243
19
206_C4H11NO2S_0-7-8-9 (60,) energy =    -762.3688861
C           1.9424017    -0.8517033    -0.9906180
H           2.2725939     0.1886862    -0.9175508
C           0.5756049    -0.9645687    -1.6652638
H          -0.1754367    -0.3920699    -1.1142657
H           0.2524754    -2.0080494    -1.7136118
H           0.6352490    -0.5707784    -2.6852927
H           2.7055572    -1.4314002    -1.5205279
S           1.8794959    -1.4992082     0.7140939
N           3.4397577    -1.3427738     1.3540339
C           3.9791310     0.0166667     1.4167175
H           3.1892447     0.7073080     1.7165776
H           4.4206003     0.3464770     0.4623027
H           4.7623706     0.0403545     2.1815438
C           4.4154257    -2.3663906     0.9711505
H           3.9297707    -3.3414933     0.9585245
H           5.2078467    -2.3768307     1.7268217
H           4.8776086    -2.1715808    -0.0107511
O           1.0207439    -0.5889844     1.4773530
O           1.5978091    -2.9358370     0.6421715
19
206_C4H11NO2S_0-7-8-9 (75,) energy =    -762.3695324
C           1.9399813    -0.9418184    -1.0407144
H           2.3452441     0.0749194    -1.0647816
C           0.5540916    -1.0154527    -1.6806226
H          -0.1433410    -0.3458274    -1.1699668
H           0.1591797    -2.0338761    -1.6309705
H           0.6168752    -0.7170268    -2.7323581
H           2.6488184    -1.6188373    -1.5281562
S           1.8778897    -1.4323261     0.7144392
N           3.4534584    -1.3170120     1.2997905
C           3.9890927     0.0177704     1.5601563
H           3.1910865     0.6607080     1.9318630
H           4.4474956     0.4750617     0.6680633
H           4.7581047    -0.0661458     2.3355993
C           4.4185392    -2.3216099     0.8580434
H           3.9154517    -3.2831389     0.7515695
H           5.1916984    -2.4179768     1.6278130
H           4.9094788    -2.0531056    -0.0916247
O           1.0904169    -0.4207213     1.4252594
O           1.5163684    -2.8523320     0.7542255
19
206_C4H11NO2S_0-7-8-9 (90,) energy =    -762.3698744
C           1.1424143    -1.4862894    -0.2151217
H           1.4517033    -2.5353221    -0.2486191
C           0.1878486    -1.1362235    -1.3550871
H           0.6496583    -1.3365769    -2.3257487
H          -0.0943863    -0.0802767    -1.3144402
H          -0.7210280    -1.7406576    -1.2694431
H           0.7155872    -1.2765029     0.7688625
S           2.6578626    -0.4889049    -0.3123210
N           3.5510670    -1.1180666     1.0010716
C           4.4150859    -2.2529272     0.6541358
H           3.8610188    -2.9899624     0.0686061
H           4.7346597    -2.7275559     1.5873241
H           5.3013531    -1.9509653     0.0798370
C           4.2106941    -0.1144914     1.8475573
H           3.5235074     0.7069440     2.0460498
H           5.1270105     0.2885953     1.3915372
H           4.4735240    -0.5996326     2.7932291
O           3.3263363    -0.8035529    -1.5841013
O           2.3120019     0.8982208     0.0224486
19
206_C4H11NO2S_0-7-8-9 (105,) energy =    -762.3695390
C           1.0998291    -1.4291145    -0.1697134
H           1.3082696    -2.5025297    -0.1319050
C           0.1243484    -1.0695839    -1.2884591
H           0.5131102    -1.3862133    -2.2603073
H          -0.0524153     0.0093727    -1.3182324
H          -0.8327104    -1.5727476    -1.1158607
H           0.7455704    -1.1062642     0.8131164
S           2.7042964    -0.6115111    -0.4110053
N           3.5906334    -1.1958186     0.9250735
C           4.5917245    -2.2235603     0.6170232
H           4.1798337    -2.9610862    -0.0726914
H           4.8530217    -2.7272545     1.5535209
H           5.5043238    -1.8044234     0.1706960
C           4.0536145    -0.1842012     1.8823634
H           3.2712437     0.5537119     2.0560230
H           4.9577225     0.3392330     1.5390955
H           4.2786038    -0.6941693     2.8250420
O           3.2959509    -1.1394649    -1.6481976
O           2.5025560     0.8320345    -0.2299436
19
206_C4H11NO2S_0-7-8-9 (120,) energy =    -762.3695907
C           1.0649231    -1.3725493    -0.1130061
H           1.1738267    -2.4568924    -0.0244211
C           0.0659816    -0.9727978    -1.1969840
H           0.3664988    -1.3737570    -2.1691781
H          -0.0073780     0.1154209    -1.2762123
H          -0.9232516    -1.3711735    -0.9487101
H           0.7956531    -0.9659203     0.8664915
S           2.7263935    -0.7401330    -0.4881192
N           3.6123171    -1.2752858     0.8654215
C           4.7404618    -2.1728925     0.5936449
H           4.4729385    -2.8816739    -0.1889543
H           4.9618094    -2.7226024     1.5147045
H           5.6442177    -1.6299054     0.2807808
C           3.8819312    -0.2604469     1.8894035
H           2.9936213     0.3474224     2.0659578
H           4.7086769     0.4085960     1.6128950
H           4.1399426    -0.7803977     2.8179621
O           3.2233371    -1.4604851    -1.6677523
O           2.6607932     0.7278355    -0.4750069
19
206_C4H11NO2S_0-7-8-9 (135,) energy =    -762.3698714
C           1.0391633    -1.3061043    -0.0712482
H           1.0598704    -2.3889933     0.0751327
C           0.0464205    -0.8795250    -1.1509057
H           0.2830237    -1.3570491    -2.1060652
H           0.0633805     0.2049474    -1.2896273
H          -0.9648955    -1.1780071    -0.8561295
H           0.8305298    -0.8249676     0.8891149
S           2.7344612    -0.8432857    -0.5322546
N           3.6036150    -1.3591962     0.8435652
C           4.8457326    -2.0928783     0.5669951
H           4.6767623    -2.8116742    -0.2337169
H           5.1242709    -2.6301254     1.4794711
H           5.6751838    -1.4290765     0.2816333
C           3.7397098    -0.3416563     1.8922766
H           2.7764273     0.1331302     2.0912383
H           4.4635188     0.4421622     1.6309002
H           4.0687212    -0.8452918     2.8068368
O           3.1496337    -1.6955618    -1.6534532
O           2.7869580     0.6217464    -0.6503774
19
206_C4H11NO2S_0-7-8-9 (150,) energy =    -762.3694775
C           1.0180861    -1.2288826    -0.0279495
H           0.9550056    -2.2927905     0.2133532
C           0.0578440    -0.8251378    -1.1461531
H           0.2531709    -1.4042636    -2.0529846
H           0.1585875     0.2377833    -1.3820310
H          -0.9720834    -1.0160580    -0.8278796
H           0.8469103    -0.6464349     0.8813347
S           2.7382394    -0.9432744    -0.5407237
N           3.5908677    -1.4474724     0.8581575
C           4.9264424    -1.9920180     0.5603160
H           4.8501185    -2.7207938    -0.2460218
H           5.2862168    -2.4937057     1.4640216
H           5.6481198    -1.2115406     0.2775625
C           3.6294979    -0.4289161     1.9177631
H           2.6235312    -0.0632409     2.1365139
H           4.2631826     0.4295245     1.6569514
H           4.0195114    -0.9050931     2.8226510
O           3.0685820    -1.9002434    -1.6036711
O           2.9091262     0.5009233    -0.7690378
19
206_C4H11NO2S_0-7-8-9 (165,) energy =    -762.3678829
C           1.0094045    -1.0973805     0.0110228
H           0.8668770    -2.0977076     0.4280332
C           0.0706212    -0.8190887    -1.1632374
H           0.2117772    -1.5573559    -1.9569491
H           0.2488234     0.1775928    -1.5765777
H          -0.9666716    -0.8717092    -0.8175586
H           0.8902020    -0.3532463     0.8016491
S           2.7360988    -1.0221539    -0.5550808
N           3.5923334    -1.5469356     0.8417061
C           4.9845666    -1.9027176     0.5016178
H           4.9841946    -2.5970310    -0.3389983
H           5.4195315    -2.4003645     1.3733539
H           5.5940834    -1.0226982     0.2500976
C           3.5530351    -0.5726746     1.9460716
H           2.5221742    -0.3667628     2.2424763
H           4.0494235     0.3746433     1.6941909
H           4.0592962    -1.0277573     2.8024900
O           2.9416383    -2.0573346    -1.5743252
O           3.0441320     0.3842143    -0.8685329
19
206_C4H11NO2S_0-7-8-9 (180,) energy =    -762.3655660
C           1.1069094    -0.6518601    -0.0725082
H           0.8225782    -1.1952702     0.8308401
C           0.0606571    -0.8150047    -1.1759458
H          -0.0853531    -1.8709616    -1.4206258
H           0.3642874    -0.2848542    -2.0819491
H          -0.8937300    -0.4044625    -0.8312978
H           1.2869679     0.3995407     0.1692159
S           2.6931809    -1.3416138    -0.6383452
N           3.8029007    -0.7554055     0.5481331
C           5.1606105    -1.2406077     0.2195302
H           5.3890566    -0.9891343    -0.8176850
H           5.2663153    -2.3245082     0.3660805
H           5.8656979    -0.7154941     0.8701819
C           3.4427933    -1.1377935     1.9258648
H           2.4976035    -0.6765302     2.2192978
H           4.2202327    -0.7411743     2.5852867
H           3.3801958    -2.2268011     2.0660396
O           2.5859911    -2.8103669    -0.5723541
O           3.0708563    -0.7018548    -1.9030484
