17
322_C6H9NO_0-4-13-12 (-165,) energy =    -364.0218748
C           1.2534001    -0.3044232    -0.5529134
H           1.0190741     0.2686565     0.3487109
H           0.4183073    -0.9835343    -0.7546386
H           1.3267822     0.3998741    -1.3895530
C           2.5507874    -1.1110727    -0.3931834
C           2.8630134    -1.9636417    -1.6343163
H           2.0507391    -2.6759306    -1.8162134
H           3.7955784    -2.5180044    -1.5018433
H           2.9693119    -1.3309595    -2.5230824
H           2.4130760    -1.8002296     0.4547849
C           5.6523528     0.5771631     0.3784484
H           6.7303087     0.6179127     0.4468046
N           4.9931517    -0.5457794    -0.1059400
C           3.7300944    -0.2416109    -0.0487964
O           3.4959736     1.0103036     0.4451711
C           4.7402787     1.5212130     0.7130659
H           4.7768029     2.5229986     1.1099838
17
322_C6H9NO_0-4-13-12 (-150,) energy =    -364.0224196
C           1.2602222    -0.2741609    -0.6273432
H           1.0193766     0.3499509     0.2377054
H           0.4150191    -0.9455808    -0.8129338
H           1.3691755     0.3817771    -1.4989398
C           2.5389910    -1.0963448    -0.3936404
C           2.8643222    -2.0171673    -1.5780233
H           2.0414430    -2.7212596    -1.7426312
H           3.7818488    -2.5823863    -1.3966467
H           3.0066614    -1.4347104    -2.4952028
H           2.3635824    -1.7323129     0.4891193
C           5.6418216     0.6388899     0.2653559
H           6.7168584     0.7379417     0.2134199
N           4.9770476    -0.4340965    -0.3170430
C           3.7189509    -0.2236749    -0.0656875
O           3.4927340     0.9183429     0.6509034
C           4.7372758     1.4578072     0.8529778
H           4.7791293     2.3852028     1.4013797
17
322_C6H9NO_0-4-13-12 (-135,) energy =    -364.0228906
C           1.2778057    -0.2444683    -0.6894944
H           1.0356431     0.4281125     0.1384098
H           0.4195537    -0.9035540    -0.8594983
H           1.4230507     0.3623845    -1.5908725
C           2.5338206    -1.0830922    -0.3857723
C           2.8709588    -2.0540131    -1.5242097
H           2.0310217    -2.7363160    -1.6939752
H           3.7619306    -2.6434889    -1.2926508
H           3.0667437    -1.5098313    -2.4543422
H           2.3221473    -1.6742206     0.5192617
C           5.6179210     0.7248225     0.1521594
H           6.6719408     0.8984184    -0.0120967
N           4.9377066    -0.3024528    -0.4933467
C           3.7138138    -0.2103739    -0.0667421
O           3.5240902     0.8089029     0.8252957
C           4.7568005     1.3964788     0.9527858
H           4.8241597     2.2403939     1.6205676
17
322_C6H9NO_0-4-13-12 (-120,) energy =    -364.0231048
C           1.2992859    -0.2184399    -0.7484047
H           1.0528819     0.4941254     0.0446965
H           0.4274523    -0.8601923    -0.9167162
H           1.4895328     0.3454846    -1.6688916
C           2.5245670    -1.0765502    -0.3721879
C           2.8731235    -2.0900045    -1.4690046
H           2.0169267    -2.7471540    -1.6560129
H           3.7311055    -2.7057464    -1.1847072
H           3.1285431    -1.5795514    -2.4031304
H           2.2722774    -1.6263730     0.5469251
C           5.5748804     0.8120609     0.0718540
H           6.5924094     1.0713806    -0.1839379
N           4.8741187    -0.1686738    -0.6230930
C           3.7079646    -0.2108603    -0.0521105
O           3.5746658     0.6754162     0.9810816
C           4.7829734     1.3215915     1.0448775
H           4.8894633     2.0749068     1.8089665
17
322_C6H9NO_0-4-13-12 (-105,) energy =    -364.0230459
C           1.3230531    -0.2024313    -0.8127048
H           1.0741019     0.5470036    -0.0544599
H           0.4385203    -0.8268983    -0.9808789
H           1.5562150     0.3194621    -1.7476937
C           2.5153401    -1.0761653    -0.3677009
C           2.8675654    -2.1345899    -1.4208786
H           1.9965901    -2.7677029    -1.6222735
H           3.6907142    -2.7726093    -1.0851477
H           3.1771132    -1.6609581    -2.3575690
H           2.2283109    -1.5818294     0.5648271
C           5.5257925     0.8904285    -0.0086899
H           6.4929151     1.2399466    -0.3412612
N           4.7904385    -0.0337937    -0.7440103
C           3.7065606    -0.2203210    -0.0525485
O           3.6594064     0.5174827     1.0977513
C           4.8360236     1.2229028     1.1082401
H           5.0029510     1.8739016     1.9514150
17
322_C6H9NO_0-4-13-12 (-90,) energy =    -364.0228017
C           1.3352054    -0.1874410    -0.8786754
H           1.0759420     0.5985748    -0.1614292
H           0.4447116    -0.8034251    -1.0476156
H           1.6086447     0.2896483    -1.8261926
C           2.4978544    -1.0601171    -0.3589844
C           2.8585989    -2.1687460    -1.3585684
H           1.9787336    -2.7854641    -1.5724160
H           3.6479411    -2.8177702    -0.9659466
H           3.2181840    -1.7374978    -2.2977316
H           2.1823288    -1.5172113     0.5877960
C           5.4617482     0.9842929    -0.0667417
H           6.3667464     1.4284823    -0.4564535
N           4.6762022     0.1316252    -0.8349208
C           3.6946585    -0.2079724    -0.0541333
O           3.7624805     0.3608111     1.1866566
C           4.9040067     1.1215353     1.1599401
H           5.1508231     1.6564217     2.0629781
17
322_C6H9NO_0-4-13-12 (-75,) energy =    -364.0225146
C           1.3361647    -0.1754356    -0.9655432
H           1.0473172     0.6389576    -0.2923839
H           0.4525834    -0.7974911    -1.1483146
H           1.6525659     0.2644765    -1.9172446
C           2.4735088    -1.0252101    -0.3622340
C           2.8535208    -2.1897310    -1.2925947
H           1.9739363    -2.8066862    -1.5078426
H           3.6183948    -2.8284719    -0.8385507
H           3.2510675    -1.8085593    -2.2383461
H           2.1326073    -1.4298006     0.5985013
C           5.3972793     1.0797824    -0.1119720
H           6.2336671     1.6169145    -0.5365097
N           4.5339561     0.3301372    -0.9027761
C           3.6700814    -0.1676381    -0.0692501
O           3.8904290     0.1976785     1.2282692
C           5.0038656     0.9983455     1.1818804
H           5.3563738     1.3931554     2.1211725
17
322_C6H9NO_0-4-13-12 (-60,) energy =    -364.0224086
C           1.3312506    -0.1703373    -1.0529747
H           0.9998076     0.6657530    -0.4278470
H           0.4648765    -0.8093720    -1.2576047
H           1.6929553     0.2386680    -2.0018520
C           2.4423792    -0.9817067    -0.3608279
C           2.8587184    -2.1982388    -1.2098817
H           1.9912648    -2.8373192    -1.4099550
H           3.6167638    -2.8010237    -0.6982170
H           3.2758133    -1.8695947    -2.1673429
H           2.0699849    -1.3382340     0.6070444
C           5.3266793     1.1778602    -0.1122614
H           6.0927777     1.8105737    -0.5377982
N           4.3703425     0.5540543    -0.9048865
C           3.6295394    -0.1103733    -0.0687306
O           4.0211770     0.0233324     1.2325589
C           5.1124818     0.8538676     1.1857998
H           5.5807878     1.0916437     2.1273212
17
322_C6H9NO_0-4-13-12 (-45,) energy =    -364.0225878
C           1.3376929    -0.1635985    -1.1334311
H           0.9738630     0.6967439    -0.5620608
H           0.4853640    -0.8160253    -1.3532416
H           1.7439382     0.2087675    -2.0789672
C           2.4130210    -0.9376980    -0.3539557
C           2.8645237    -2.2005036    -1.1166040
H           2.0101264    -2.8641102    -1.2915865
H           3.6198643    -2.7578574    -0.5521382
H           3.2947936    -1.9277565    -2.0862152
H           1.9990492    -1.2503817     0.6127681
C           5.2555489     1.2723824    -0.0754924
H           5.9513632     1.9979800    -0.4724712
N           4.2106272     0.7685399    -0.8417419
C           3.5903463    -0.0569854    -0.0526946
O           4.1481666    -0.1469501     1.1910494
C           5.2157594     0.7143388     1.1583779
H           5.7969382     0.8002125     2.0624245
17
322_C6H9NO_0-4-13-12 (-30,) energy =    -364.0228770
C           1.3545714    -0.1642433    -1.2066764
H           0.9816397     0.7249434    -0.6885665
H           0.5042385    -0.8191645    -1.4260630
H           1.7957114     0.1626513    -2.1532045
C           2.3906991    -0.9113269    -0.3555035
C           2.8604357    -2.2135551    -1.0382546
H           2.0075032    -2.8788598    -1.2137484
H           3.5882473    -2.7469660    -0.4178406
H           3.3287729    -1.9936352    -2.0040956
H           1.9352331    -1.1815624     0.6064767
C           5.1783193     1.3632308    -0.0297472
H           5.8014319     2.1773736    -0.3719178
N           4.0635565     0.9439980    -0.7481431
C           3.5642148    -0.0289837    -0.0466900
O           4.2683640    -0.2972306     1.0937942
C           5.3005427     0.6065675     1.0869557
H           5.9823111     0.5694076     1.9214311
17
322_C6H9NO_0-4-13-12 (-15,) energy =    -364.0230916
C           1.3930007    -0.1569946    -1.2640692
H           1.0483225     0.7755398    -0.8074101
H           0.5221667    -0.7917046    -1.4607329
H           1.8612311     0.0966690    -2.2202254
C           2.3825835    -0.8931220    -0.3524062
C           2.8428920    -2.2309974    -0.9690198
H           1.9804311    -2.8847942    -1.1400257
H           3.5433222    -2.7530518    -0.3094489
H           3.3390526    -2.0613814    -1.9314409
H           1.8852341    -1.1210692     0.6011337
C           5.1173635     1.4315191     0.0702125
H           5.6743155     2.3206672    -0.1892009
N           3.9537298     1.0750826    -0.6041274
C           3.5622205    -0.0234401    -0.0317486
O           4.3837481    -0.4336254     0.9816237
C           5.3749462     0.5134555     1.0317478
H           6.1372529     0.3772078     1.7820462
17
322_C6H9NO_0-4-13-12 (0,) energy =    -364.0230663
C           1.4327085    -0.1642685    -1.3195483
H           1.1164274     0.8023638    -0.9178970
H           0.5434676    -0.7788346    -1.4966634
H           1.9220018     0.0219932    -2.2811295
C           2.3830741    -0.8863552    -0.3565472
C           2.8221510    -2.2585930    -0.9062829
H           1.9458288    -2.8940212    -1.0749094
H           3.4903252    -2.7733021    -0.2093036
H           3.3470880    -2.1429358    -1.8616217
H           1.8534843    -1.0642281     0.5916367
C           5.0611421     1.4867848     0.1587489
H           5.5512286     2.4358467    -0.0060269
N           3.8564554     1.1688403    -0.4602810
C           3.5716710    -0.0266001    -0.0387752
O           4.5027910    -0.5362871     0.8238247
C           5.4495283     0.4496170     0.9378399
H           6.2871876     0.2437636     1.5848360
17
322_C6H9NO_0-4-13-12 (15,) energy =    -364.0227415
C           1.4612576    -0.1696095    -1.3778497
H           1.1736334     0.8267055    -1.0323179
H           0.5546432    -0.7630073    -1.5383352
H           1.9715440    -0.0526155    -2.3400155
C           2.3727686    -0.8711286    -0.3619821
C           2.7944326    -2.2720839    -0.8432072
H           1.9070590    -2.8897912    -1.0186697
H           3.4245906    -2.7782302    -0.1062692
H           3.3543445    -2.2084139    -1.7835167
H           1.8105413    -0.9981389     0.5765462
C           4.9905112     1.5416830     0.2695467
H           5.4172386     2.5332845     0.2171216
N           3.7509691     1.2486945    -0.2887947
C           3.5652232    -0.0141069    -0.0442470
O           4.5958653    -0.5905896     0.6453423
C           5.4998829     0.4227183     0.8372094
H           6.4048700     0.1703907     1.3663458
17
322_C6H9NO_0-4-13-12 (30,) energy =    -364.0222107
C           1.4941395    -0.1830389    -1.4428089
H           1.2286649     0.8356664    -1.1491735
H           0.5744086    -0.7562434    -1.6025967
H           2.0340909    -0.1276977    -2.3947644
C           2.3579087    -0.8618952    -0.3684527
C           2.7635057    -2.2874469    -0.7781110
H           1.8674566    -2.8876959    -0.9684576
H           3.3484532    -2.7825838     0.0021517
H           3.3643748    -2.2756639    -1.6947970
H           1.7577696    -0.9361644     0.5522151
C           4.9279099     1.5657973     0.3853023
H           5.3008028     2.5778063     0.4562515
N           3.6514004     1.2892304    -0.0895472
C           3.5510989    -0.0061804    -0.0415560
O           4.6741437    -0.6194027     0.4388364
C           5.5468694     0.4042903     0.7053758
H           6.5148910     0.1269666     1.0908378
17
322_C6H9NO_0-4-13-12 (45,) energy =    -364.0217005
C           1.5458914    -0.1921344    -1.5031733
H           1.2927606     0.8422354    -1.2564404
H           0.6196299    -0.7489913    -1.6831976
H           2.1279837    -0.1869974    -2.4320238
C           2.3462098    -0.8473326    -0.3630960
C           2.7384005    -2.2937487    -0.6982036
H           1.8384081    -2.8808848    -0.9091490
H           3.2733923    -2.7715351     0.1277790
H           3.3836166    -2.3325302    -1.5830928
H           1.6998322    -0.8679683     0.5273758
C           4.8866007     1.5696061     0.5146609
H           5.2216640     2.5771663     0.7169412
N           3.5737958     1.2943595     0.1534377
C           3.5362060     0.0047677    -0.0106111
O           4.7361272    -0.6057320     0.2189121
C           5.5910566     0.4130777     0.5541075
H           6.6106088     0.1374976     0.7708377
17
322_C6H9NO_0-4-13-12 (60,) energy =    -364.0215044
C           1.6074849    -0.2003904    -1.5673524
H           1.3603574     0.8454972    -1.3654203
H           0.6810142    -0.7449160    -1.7820720
H           2.2392623    -0.2367846    -2.4627429
C           2.3300427    -0.8324577    -0.3605947
C           2.7023218    -2.2984544    -0.6201128
H           1.8006775    -2.8723685    -0.8584871
H           3.1785571    -2.7562299     0.2526134
H           3.3944775    -2.3877151    -1.4643139
H           1.6369617    -0.7958002     0.4913432
C           4.8557842     1.5505095     0.6366584
H           5.1702860     2.5294446     0.9700732
N           3.5184979     1.2498438     0.4112150
C           3.5168547     0.0064718     0.0301553
O           4.7632751    -0.5488342    -0.0175203
C           5.6105006     0.4559387     0.3757088
H           6.6612718     0.2170254     0.4090424
17
322_C6H9NO_0-4-13-12 (75,) energy =    -364.0218003
C           1.6758169    -0.2157157    -1.6225523
H           1.4256178     0.8374643    -1.4642432
H           0.7578604    -0.7573772    -1.8776990
H           2.3585970    -0.2823923    -2.4778786
C           2.3184920    -0.8217504    -0.3567992
C           2.6619713    -2.3062787    -0.5442070
H           1.7576710    -2.8680033    -0.8010861
H           3.0861325    -2.7404418     0.3672254
H           3.3886256    -2.4451119    -1.3515060
H           1.5897610    -0.7270241     0.4581320
C           4.8447479     1.5036811     0.7586659
H           5.1581291     2.4305041     1.2181398
N           3.5032163     1.1553432     0.6565349
C           3.5053295    -0.0039616     0.0680343
O           4.7571073    -0.4567178    -0.2381663
C           5.6044145     0.5226962     0.2146868
H           6.6598267     0.3508775     0.0768379
17
322_C6H9NO_0-4-13-12 (90,) energy =    -364.0223644
C           1.7300261    -0.2394448    -1.6712801
H           1.4741790     0.8190261    -1.5615662
H           0.8228141    -0.7874125    -1.9501498
H           2.4506632    -0.3356373    -2.4917788
C           2.3122547    -0.8043637    -0.3582516
C           2.6297316    -2.3035232    -0.4755348
H           1.7266726    -2.8580383    -0.7525279
H           3.0019021    -2.7093716     0.4712010
H           3.3892254    -2.4862339    -1.2428920
H           1.5652362    -0.6574100     0.4305312
C           4.8602032     1.4429105     0.8612077
H           5.1914263     2.2984651     1.4326237
N           3.5281944     1.0434191     0.8488713
C           3.5031588    -0.0028948     0.0781645
O           4.7266686    -0.3312000    -0.4350703
C           5.5853938     0.6059469     0.0813330
H           6.6233674     0.5161843    -0.1963453
17
322_C6H9NO_0-4-13-12 (105,) energy =    -364.0228063
C           1.7669536    -0.2696490    -1.7215930
H           1.5241870     0.7966955    -1.6694306
H           0.8592001    -0.8148151    -2.0039336
H           2.5098679    -0.4134798    -2.5142546
C           2.2992209    -0.7846205    -0.3686445
C           2.5980592    -2.2937196    -0.4151483
H           1.6954616    -2.8489715    -0.6929771
H           2.9390876    -2.6625223     0.5581027
H           3.3750666    -2.5169675    -1.1541115
H           1.5373742    -0.5954433     0.3959040
C           4.8833474     1.3561680     0.9618011
H           5.2452140     2.1212128     1.6340062
N           3.5647666     0.9140703     1.0000118
C           3.4935435     0.0062665     0.0728426
O           4.6729899    -0.1912225    -0.5899878
C           5.5529042     0.6835131    -0.0043156
H           6.5618804     0.6818547    -0.3845527
17
322_C6H9NO_0-4-13-12 (120,) energy =    -364.0229348
C           1.7976438    -0.2970925    -1.7710077
H           1.5591410     0.7718032    -1.7754796
H           0.8943270    -0.8496070    -2.0525347
H           2.5597773    -0.4793434    -2.5364813
C           2.2905736    -0.7542083    -0.3847534
C           2.5764601    -2.2687458    -0.3605305
H           1.6761693    -2.8284358    -0.6376908
H           2.8896276    -2.5971320     0.6361379
H           3.3697150    -2.5279187    -1.0703687
H           1.5170330    -0.5301771     0.3579617
C           4.9267584     1.2606859     1.0382570
H           5.3306177     1.9216771     1.7919548
N           3.6227182     0.7804102     1.1100322
C           3.4878734     0.0315119     0.0566992
O           4.6119290    -0.0267890    -0.7197850
C           5.5238636     0.7687982    -0.0732366
H           6.4956561     0.8612393    -0.5311674
17
322_C6H9NO_0-4-13-12 (135,) energy =    -364.0226869
C           1.8336257    -0.3342403    -1.8144082
H           1.6031345     0.7347446    -1.8766434
H           0.9339560    -0.8934246    -2.0936567
H           2.6135252    -0.5560418    -2.5504346
C           2.2850894    -0.7303701    -0.3978227
C           2.5565685    -2.2463691    -0.2990361
H           1.6580832    -2.8109871    -0.5726626
H           2.8434696    -2.5295317     0.7188645
H           3.3641304    -2.5428299    -0.9780191
H           1.4956788    -0.4740071     0.3174317
C           4.9784914     1.1520418     1.0962523
H           5.4309028     1.6994235     1.9110059
N           3.6938710     0.6270416     1.1928771
C           3.4842724     0.0524255     0.0461922
O           4.5419143     0.1495902    -0.8146360
C           5.4901193     0.8606204    -0.1233849
H           6.4166010     1.0587841    -0.6381173
17
322_C6H9NO_0-4-13-12 (150,) energy =    -364.0221609
C           1.2299677    -0.4316898    -0.3338503
H           1.0138932    -0.0481744     0.6690538
H           0.4216146    -1.1133780    -0.6193127
H           1.2207125     0.4153872    -1.0274165
C           2.5785477    -1.1670255    -0.3791083
C           2.8552890    -1.7480488    -1.7827346
H           2.0523768    -2.4348920    -2.0738523
H           3.8024064    -2.2960981    -1.7989576
H           2.9073153    -0.9493206    -2.5317965
H           2.5603560    -2.0003843     0.3329163
C           5.5673970     0.5188795     0.7400614
H           6.5476894     0.5319411     1.1951412
N           4.8243012    -0.6518032     0.6387671
C           3.7188131    -0.2931645     0.0563662
O           3.6696662     1.0381733    -0.2476621
C           4.8635728     1.5432897     0.2014826
H           5.0223558     2.6011364     0.0664539
17
322_C6H9NO_0-4-13-12 (165,) energy =    -364.0216479
C           1.2388428    -0.3897258    -0.4049148
H           1.0103305     0.0553493     0.5690036
H           0.4235622    -1.0716682    -0.6685656
H           1.2597158     0.4168555    -1.1451953
C           2.5698964    -1.1541741    -0.3816403
C           2.8665076    -1.8193979    -1.7424442
H           2.0698767    -2.5265269    -2.0003436
H           3.8164208    -2.3608248    -1.7106980
H           2.9253118    -1.0681002    -2.5388616
H           2.5078280    -1.9525825     0.3689660
C           5.6134585     0.5102663     0.6229579
H           6.6428180     0.5075912     0.9527803
N           4.9109132    -0.6694108     0.4098233
C           3.7263059    -0.2873577     0.0335344
O           3.5859694     1.0697103    -0.0256099
C           4.8063798     1.5656222     0.3577868
H           4.9047362     2.6388619     0.3867552
17
322_C6H9NO_0-4-13-12 (180,) energy =    -364.0215223
C           1.2522932    -0.3419021    -0.4800477
H           1.0220314     0.1700670     0.4592912
H           0.4267600    -1.0236246    -0.7100074
H           1.2979353     0.4145935    -1.2711652
C           2.5654868    -1.1313537    -0.3909805
C           2.8684958    -1.8974473    -1.6929896
H           2.0648314    -2.6104777    -1.9086542
H           3.8108844    -2.4455321    -1.6095202
H           2.9487592    -1.2072366    -2.5410504
H           2.4642190    -1.8765944     0.4112481
C           5.6476488     0.5350733     0.4925288
H           6.7103803     0.5412752     0.6899146
N           4.9765016    -0.6290785     0.1408029
C           3.7377813    -0.2649370    -0.0150151
O           3.5309514     1.0660169     0.2080096
C           4.7671394     1.5640208     0.5332698
H           4.8220460     2.6189783     0.7485897
