21
057_C8H9NO3_0-5-10-9 (-165,) energy =    -590.6715799
N           1.7077359    -1.0496213    -0.7983440
C           1.6452277    -0.0068938    -1.8214288
H           0.7959530     0.6640884    -1.6411200
H           1.5198788    -0.4534705    -2.8187050
H           2.5627123     0.5810171    -1.8315853
C           2.9104951    -1.4805184    -0.2475365
C           5.6014626     1.3417457     1.5012667
H           6.3560559     1.9340978     2.0095370
O           6.0668674     0.1455023     1.1281158
C           5.2695145    -0.8310232     0.4483935
C           3.8864949    -0.4144686     0.1863195
C           3.4579998     0.8124892     0.6205122
H           2.4122590     1.0778589     0.4990561
C           4.3278885     1.7377797     1.2685562
H           3.9826754     2.7099454     1.5982301
O           3.0890925    -2.6484677     0.0652338
C           0.6684269    -2.0666241    -0.9277270
H          -0.3027855    -1.5664799    -1.0033471
H           0.6831676    -2.7138213    -0.0512427
H           0.8145015    -2.6927367    -1.8197123
O           5.8297418    -1.8470613     0.1448243
21
057_C8H9NO3_0-5-10-9 (-150,) energy =    -590.6748241
N           1.7251175    -1.0867275    -0.8265840
C           1.7259823    -0.0457204    -1.8488742
H           0.8557825     0.6126067    -1.7321765
H           1.6812950    -0.4933749    -2.8522144
H           2.6325958     0.5550170    -1.7866341
C           2.8556473    -1.4729226    -0.1283470
C           5.6264838     1.3700487     1.4339521
H           6.4119427     1.9649796     1.8891005
O           6.0835530     0.1936436     0.9849177
C           5.2498159    -0.7740267     0.3492759
C           3.8385264    -0.3924878     0.2485440
C           3.4218268     0.8174845     0.7312248
H           2.3650982     1.0673056     0.6879050
C           4.3304080     1.7444162     1.3255580
H           3.9999217     2.7026997     1.7069882
O           2.9894744    -2.6009005     0.3255611
C           0.6763448    -2.0885868    -0.9831626
H          -0.2899746    -1.5807861    -1.0743994
H           0.6724348    -2.7421832    -0.1117755
H           0.8351508    -2.7055855    -1.8791538
O           5.7936941    -1.7629499    -0.0607900
21
057_C8H9NO3_0-5-10-9 (-135,) energy =    -590.6766614
N           1.7239096    -1.1474167    -0.8620292
C           1.7876077    -0.1054483    -1.8779081
H           0.8990040     0.5367752    -1.8279068
H           1.8291399    -0.5510229    -2.8819550
H           2.6747981     0.5113529    -1.7409462
C           2.7692655    -1.4871206    -0.0315071
C           5.6618918     1.3247254     1.3493667
H           6.4875174     1.9100726     1.7406992
O           6.0780485     0.1666008     0.8133880
C           5.1890866    -0.7812937     0.2381012
C           3.7750208    -0.4123319     0.3033023
C           3.3981544     0.7803942     0.8513780
H           2.3414481     1.0310688     0.9036722
C           4.3604340     1.6920695     1.3858427
H           4.0677404     2.6362687     1.8284830
O           2.8401624    -2.5678643     0.5387589
C           0.6693990    -2.1353337    -1.0567264
H          -0.2943091    -1.6224533    -1.1527496
H           0.6514068    -2.8067570    -0.1993949
H           0.8414443    -2.7295673    -1.9651861
O           5.6828546    -1.7547952    -0.2665896
21
057_C8H9NO3_0-5-10-9 (-120,) energy =    -590.6776032
N           1.7149274    -1.1373257    -0.8642048
C           1.8511358    -0.1240371    -1.8994669
H           0.9389414     0.4830186    -1.9616718
H           2.0162572    -0.5932096    -2.8795151
H           2.6938422     0.5320583    -1.6852887
C           2.6657428    -1.4120135     0.0873604
C           5.6913709     1.3459998     1.2802974
H           6.5563744     1.9166140     1.6014560
O           6.0450379     0.2055731     0.6624562
C           5.0965841    -0.7157333     0.1540672
C           3.7007581    -0.3497837     0.3800396
C           3.3832926     0.8233179     0.9994476
H           2.3385628     1.0793925     1.1594919
C           4.4028582     1.7126422     1.4643670
H           4.1631967     2.6423042     1.9657850
O           2.6589391    -2.4289173     0.7696272
C           0.6669340    -2.1247653    -1.0900678
H          -0.2931648    -1.6151084    -1.2319913
H           0.6152986    -2.7846683    -0.2251941
H           0.8782377    -2.7269944    -1.9844889
O           5.5214953    -1.6784519    -0.4320651
21
057_C8H9NO3_0-5-10-9 (-105,) energy =    -590.6783040
N           1.7113095    -1.1281603    -0.8530274
C           1.9485419    -0.1721210    -1.9229541
H           1.0320007     0.3935747    -2.1320203
H           2.2539140    -0.6850540    -2.8454422
H           2.7328382     0.5297155    -1.6406369
C           2.5636812    -1.3353843     0.1992564
C           5.7032339     1.3537492     1.2516922
H           6.5989549     1.9085875     1.5090530
O           5.9870063     0.2531092     0.5298992
C           4.9888730    -0.6359322     0.0757261
C           3.6263122    -0.2894839     0.4642274
C           3.3763000     0.8358107     1.1912623
H           2.3555296     1.0752715     1.4793679
C           4.4431053     1.6996422     1.5974949
H           4.2606768     2.5959450     2.1776863
O           2.4660657    -2.2802193     0.9729688
C           0.6795368    -2.1237683    -1.1132451
H          -0.2673379    -1.6221865    -1.3448855
H           0.5647589    -2.7458757    -0.2266432
H           0.9549610    -2.7613018    -1.9644984
O           5.3396282    -1.5702764    -0.6026145
21
057_C8H9NO3_0-5-10-9 (-90,) energy =    -590.6795186
N           1.6977708    -1.1124320    -0.8551109
C           2.0411007    -0.2473243    -1.9730990
H           1.1285639     0.2054028    -2.3779977
H           2.5390499    -0.8086583    -2.7751477
H           2.7041714     0.5535150    -1.6447471
C           2.4696596    -1.2448048     0.2668114
C           5.7188993     1.3677959     1.1710402
H           6.6381077     1.9106015     1.3623691
O           5.9143887     0.3369266     0.3262482
C           4.8699247    -0.5202597    -0.0747322
C           3.5620266    -0.2183789     0.4916038
C           3.4037260     0.8240638     1.3549318
H           2.4285938     1.0152763     1.7956645
C           4.5104300     1.6635285     1.6997449
H           4.3996231     2.5022887     2.3761157
O           2.2787747    -2.0986473     1.1255980
C           0.6839519    -2.1245214    -1.1221465
H          -0.2435110    -1.6412827    -1.4504853
H           0.5064232    -2.6872512    -0.2066623
H           1.0166481    -2.8151311    -1.9091988
O           5.1372529    -1.4027210    -0.8560240
21
057_C8H9NO3_0-5-10-9 (-75,) energy =    -590.6812220
N           1.7120502    -1.1387783    -0.8723112
C           2.1162174    -0.3393441    -2.0187517
H           1.2196650     0.0094715    -2.5434247
H           2.7363604    -0.9155638    -2.7165489
H           2.6790552     0.5365003    -1.6927353
C           2.3871229    -1.1715511     0.3158635
C           5.7345932     1.3571004     1.1062175
H           6.6644574     1.8976600     1.2459430
O           5.8525072     0.3918498     0.1755926
C           4.7791468    -0.4503489    -0.1843913
C           3.5241497    -0.1899588     0.5072839
C           3.4530801     0.7734506     1.4703164
H           2.5253952     0.9086378     2.0199304
C           4.5818587     1.5971131     1.7714290
H           4.5330463     2.3804849     2.5178668
O           2.0770044    -1.9040758     1.2515147
C           0.6895733    -2.1462036    -1.1219205
H          -0.2244684    -1.6673626    -1.4928256
H           0.4812150    -2.6652125    -0.1873915
H           1.0328556    -2.8717342    -1.8717917
O           4.9905421    -1.2906404    -1.0276767
21
057_C8H9NO3_0-5-10-9 (-60,) energy =    -590.6824043
N           1.7716259    -1.1699864    -0.9377444
C           2.1834720    -0.3995337    -2.1005796
H           1.2881797    -0.0733640    -2.6433193
H           2.8165739    -0.9883873    -2.7737409
H           2.7336718     0.4912073    -1.7955458
C           2.3251628    -1.0730622     0.3072015
C           5.7353566     1.3747711     1.1092848
H           6.6657233     1.9170834     1.2403588
O           5.8156453     0.4775178     0.1124788
C           4.7349152    -0.3597527    -0.2533910
C           3.5062522    -0.1478030     0.5005345
C           3.4814112     0.7427303     1.5365257
H           2.5782204     0.8210381     2.1350699
C           4.6143593     1.5530446     1.8460228
H           4.5942618     2.2809547     2.6478137
O           1.8833513    -1.6708810     1.2876850
C           0.7252167    -2.1571515    -1.1645867
H          -0.1990632    -1.6667807    -1.4963107
H           0.5398587    -2.6860639    -0.2309630
H           1.0372372    -2.8703185    -1.9384858
O           4.9378687    -1.1582712    -1.1374531
21
057_C8H9NO3_0-5-10-9 (-45,) energy =    -590.6824930
N           1.7972764    -1.2061268    -0.9416194
C           2.1588598    -0.4581119    -2.1372476
H           1.2397737    -0.1492755    -2.6514364
H           2.7687600    -1.0584445    -2.8197821
H           2.7142779     0.4428252    -1.8776710
C           2.2581911    -0.9583302     0.3202673
C           5.7364188     1.4105752     1.0956135
H           6.6685975     1.9534480     1.2123303
O           5.7739159     0.5699718     0.0509063
C           4.6820832    -0.2606088    -0.3124597
C           3.4852138    -0.0942617     0.5035818
C           3.5079185     0.7443060     1.5848635
H           2.6265325     0.7850248     2.2180654
C           4.6496701     1.5390227     1.8926464
H           4.6617008     2.2211566     2.7338341
O           1.7146853    -1.4175509     1.3262625
C           0.7133662    -2.1654706    -1.1044732
H          -0.2392296    -1.6563861    -1.3068872
H           0.6148332    -2.7454419    -0.1882549
H           0.9377402    -2.8306502    -1.9465893
O           4.8683400    -1.0169846    -1.2353291
21
057_C8H9NO3_0-5-10-9 (-30,) energy =    -590.6813553
N           1.8582403    -1.2374032    -0.9789288
C           2.1825783    -0.5224365    -2.2086860
H           1.2480710    -0.2121270    -2.6954687
H           2.7547051    -1.1517049    -2.8967124
H           2.7638608     0.3735634    -1.9996212
C           2.2155704    -0.8398313     0.2804910
C           5.7436986     1.4319848     1.1487350
H           6.6773773     1.9680825     1.2849894
O           5.7645186     0.6592276     0.0550046
C           4.6684355    -0.1556996    -0.3442495
C           3.4818269    -0.0408378     0.4964889
C           3.5213404     0.7419623     1.6208382
H           2.6400819     0.7517875     2.2550602
C           4.6680557     1.5096073     1.9678856
H           4.6904885     2.1380655     2.8496669
O           1.5626561    -1.1687856     1.2733172
C           0.7431040    -2.1705806    -1.0878603
H          -0.2197771    -1.6460997    -1.1680199
H           0.7159607    -2.8063193    -0.2038229
H           0.8840973    -2.7838213    -1.9840719
O           4.8592281    -0.8586899    -1.3066766
21
057_C8H9NO3_0-5-10-9 (-15,) energy =    -590.6789708
N           1.8938164    -1.2767673    -0.9958111
C           2.1819071    -0.6125094    -2.2666942
H           1.2340434    -0.3043410    -2.7299486
H           2.7131134    -1.2822487    -2.9488658
H           2.7913996     0.2752794    -2.1206523
C           2.1771764    -0.7452300     0.2376587
C           5.7529311     1.4194377     1.2126711
H           6.6879926     1.9470057     1.3716231
O           5.7550001     0.7279252     0.0671994
C           4.6544438    -0.0620135    -0.3741035
C           3.4806222    -0.0148847     0.4918999
C           3.5368639     0.7007672     1.6614999
H           2.6554399     0.6799946     2.2948322
C           4.6897975     1.4354013     2.0515232
H           4.7229304     1.9998280     2.9752743
O           1.4421352    -0.9564842     1.2048311
C           0.7570808    -2.1913076    -1.0507698
H          -0.2000749    -1.6543614    -1.1143413
H           0.7419514    -2.8110373    -0.1546852
H           0.8666738    -2.8237577    -1.9374277
O           4.8432725    -0.6927440    -1.3855857
21
057_C8H9NO3_0-5-10-9 (0,) energy =    -590.6755884
N           1.9892941    -1.2810090    -1.0094552
C           2.2452462    -0.6969767    -2.3294041
H           1.2876051    -0.3993119    -2.7803615
H           2.7360936    -1.4229908    -2.9842423
H           2.8836629     0.1776133    -2.2617159
C           2.2126130    -0.6196020     0.1787214
C           5.8064271     1.4636519     1.2941110
H           6.7384973     1.9848894     1.4880848
O           5.7978363     0.8789016     0.0919078
C           4.7020843     0.1148034    -0.4058911
C           3.5385180     0.0630534     0.4746307
C           3.6021672     0.6886359     1.6963305
H           2.7206497     0.6200088     2.3256561
C           4.7531109     1.3922719     2.1419944
H           4.7892726     1.8718793     3.1123673
O           1.4115665    -0.7248752     1.1096560
C           0.8483818    -2.1948352    -1.0037076
H          -0.1086616    -1.6627370    -1.0988177
H           0.8325714    -2.7602485    -0.0720851
H           0.9583679    -2.8798244    -1.8502147
O           4.8955619    -0.4151435    -1.4730615
21
057_C8H9NO3_0-5-10-9 (15,) energy =    -590.6789706
N           1.8021425    -1.0939067    -1.0430189
C           2.7071679    -1.4244463    -2.1434896
H           2.4664603    -0.8436235    -3.0383568
H           2.6123672    -2.4951712    -2.3728426
H           3.7422187    -1.2254804    -1.8788165
C           2.2120458    -0.7720453     0.2268731
C           5.6011190     1.6916044     1.1591304
H           6.4681220     2.3286305     1.3020636
O           5.1681443     1.7077227    -0.1068547
C           4.0382469     0.9669439    -0.5590110
C           3.4112096     0.1261424     0.4558226
C           3.8882424     0.1566161     1.7422428
H           3.3715455    -0.4557318     2.4747029
C           5.0016398     0.9539757     2.1238374
H           5.3726072     0.9685271     3.1412667
O           1.5442294    -1.0962126     1.2113962
C           0.4880124    -1.7211216    -1.1493349
H           0.1179011    -1.5742700    -2.1689593
H          -0.1965760    -1.2599922    -0.4380138
H           0.5286482    -2.7993034    -0.9387208
O           3.7241684     1.1534605    -1.7092976
21
057_C8H9NO3_0-5-10-9 (30,) energy =    -590.6813553
N           1.8176864    -1.1376388    -1.0117791
C           2.7776484    -1.4470618    -2.0660141
H           2.5923782    -0.8479734    -2.9623809
H           2.6941074    -2.5124245    -2.3201393
H           3.7974917    -1.2616628    -1.7344585
C           2.1403084    -0.6885750     0.2396760
C           5.6177313     1.6623409     1.1020469
H           6.4950533     2.2891960     1.2248624
O           5.1148376     1.7412165    -0.1367868
C           3.9582399     1.0255762    -0.5552180
C           3.3882722     0.1392526     0.4535616
C           3.9230466     0.1163847     1.7152919
H           3.4321172    -0.5079254     2.4556807
C           5.0691865     0.8837651     2.0648350
H           5.4973425     0.8523277     3.0591658
O           1.4034943    -0.8853205     1.2084913
C           0.5054571    -1.7514593    -1.1777217
H           0.1678385    -1.5867512    -2.2063215
H          -0.1968281    -1.2977773    -0.4795946
H           0.5354756    -2.8335838    -0.9860167
O           3.5747985     1.2555689    -1.6763476
21
057_C8H9NO3_0-5-10-9 (45,) energy =    -590.6824927
N           1.7931353    -1.1876292    -0.9937900
C           2.7896413    -1.4712119    -2.0163819
H           2.6328676    -0.8615296    -2.9120384
H           2.7251749    -2.5328516    -2.2875001
H           3.7951105    -1.2831566    -1.6412290
C           2.0341914    -0.5770545     0.2041890
C           5.5821607     1.6853681     0.9820189
H           6.4658454     2.3071271     1.0814986
O           5.0169761     1.8077094    -0.2281023
C           3.8419516     1.1063882    -0.6073930
C           3.3241436     0.1875240     0.3989585
C           3.9105389     0.1269625     1.6340580
H           3.4509309    -0.5075567     2.3861020
C           5.0817989     0.8759466     1.9451214
H           5.5607670     0.8125622     2.9144609
O           1.2354114    -0.6180311     1.1414439
C           0.4805286    -1.7788230    -1.2156984
H           0.1237670    -1.5105010    -2.2170985
H          -0.2085542    -1.4014767    -0.4618510
H           0.5220659    -2.8744930    -1.1428999
O           3.3976443     1.3583078    -1.7016199
21
057_C8H9NO3_0-5-10-9 (60,) energy =    -590.6824041
N           1.8003584    -1.2317058    -0.9702012
C           2.8277183    -1.4870554    -1.9675712
H           2.6926089    -0.8628327    -2.8579571
H           2.7823081    -2.5432029    -2.2591357
H           3.8188838    -1.2954823    -1.5551620
C           1.9648756    -0.4710204     0.1523139
C           5.5587253     1.7049592     0.9355289
H           6.4409778     2.3282408     1.0354999
O           4.9447755     1.8926447    -0.2448085
C           3.7683318     1.1990080    -0.6151131
C           3.2896677     0.2287035     0.3608986
C           3.9170483     0.1028222     1.5681402
H           3.4908731    -0.5671828     2.3094891
C           5.1026439     0.8376982     1.8687771
H           5.6221479     0.7229647     2.8122241
O           1.1013878    -0.3604954     1.0218784
C           0.4873242    -1.7974469    -1.2473564
H           0.1095808    -1.4272348    -2.2091629
H          -0.1917967    -1.5040323    -0.4483287
H           0.5439496    -2.8926240    -1.2945855
O           3.2826972     1.4800256    -1.6854669
21
057_C8H9NO3_0-5-10-9 (75,) energy =    -590.6812219
N           1.7921539    -1.2804109    -0.8918013
C           2.8391907    -1.5491247    -1.8655848
H           2.7125807    -0.9468897    -2.7737804
H           2.8106253    -2.6108267    -2.1352790
H           3.8201166    -1.3353072    -1.4386921
C           1.9051800    -0.3741042     0.1252447
C           5.5431747     1.7107108     0.9268289
H           6.4226588     2.3362523     1.0344550
O           4.8782275     1.9751833    -0.2131460
C           3.6986191     1.2928939    -0.5793756
C           3.2594629     0.2638726     0.3530658
C           3.9396613     0.0493668     1.5158106
H           3.5590947    -0.6777535     2.2281397
C           5.1360577     0.7731671     1.8123754
H           5.6982837     0.5973397     2.7213378
O           0.9893284    -0.1048568     0.8978585
C           0.4754982    -1.8225867    -1.2002062
H           0.0981550    -1.4135758    -2.1472399
H          -0.2059242    -1.5531401    -0.3944826
H           0.5321271    -2.9139709    -1.2896442
O           3.1736123     1.6101700    -1.6212931
21
057_C8H9NO3_0-5-10-9 (90,) energy =    -590.6795186
N           1.8064107    -1.2994053    -0.8663990
C           2.8792328    -1.6405169    -1.7877575
H           2.7245335    -1.1767234    -2.7712710
H           2.9176494    -2.7284235    -1.9166078
H           3.8397278    -1.3082051    -1.3929869
C           1.8850026    -0.2840407     0.0473230
C           5.5360430     1.7094961     0.9935039
H           6.4052701     2.3381977     1.1528074
O           4.8364173     2.0904044    -0.0928169
C           3.6628325     1.4286848    -0.5066575
C           3.2538442     0.3046412     0.3250384
C           3.9779152    -0.0439477     1.4256023
H           3.6402531    -0.8633223     2.0551383
C           5.1720070     0.6653794     1.7711156
H           5.7647288     0.3947553     2.6363962
O           0.9276296     0.1201201     0.6977334
C           0.4920271    -1.8364657    -1.1941123
H           0.1467447    -1.4620143    -2.1675796
H          -0.2115977    -1.5251914    -0.4231947
H           0.5399176    -2.9306967    -1.2376716
O           3.1176428     1.8273279    -1.5088982
21
057_C8H9NO3_0-5-10-9 (105,) energy =    -590.6783041
N           1.7982952    -1.2802904    -0.8703889
C           2.8961414    -1.7399000    -1.7061621
H           2.7128317    -1.4962157    -2.7617923
H           3.0052265    -2.8281452    -1.6190137
H           3.8310996    -1.2716611    -1.3995708
C           1.8576303    -0.1813813    -0.0545202
C           5.5054564     1.7224770     1.0700764
H           6.3654410     2.3423731     1.2993125
O           4.7676102     2.2411013     0.0703077
C           3.5945519     1.6194954    -0.4097383
C           3.2243306     0.3837978     0.2711096
C           3.9985243    -0.1141551     1.2761218
H           3.7039531    -1.0323452     1.7785884
C           5.1873584     0.5657453     1.6929152
H           5.8114681     0.1840052     2.4916794
O           0.8745630     0.3201152     0.4773978
C           0.4892178    -1.8380324    -1.1846425
H           0.1728638    -1.5508868    -2.1967714
H          -0.2336931    -1.4558513    -0.4652052
H           0.5312096    -2.9321060    -1.1293746
O           3.0272999     2.1392295    -1.3393975
21
057_C8H9NO3_0-5-10-9 (120,) energy =    -590.6776036
N           1.7222742    -1.1937124    -1.0128328
C           0.8462735    -0.1789410    -0.4472040
H           1.4063012     0.4913262     0.2036536
H           0.0445849    -0.6460217     0.1418474
H           0.3815509     0.4126631    -1.2462883
C           3.0000209    -1.4487233    -0.5799954
C           5.3888233     1.3665083     1.5533645
H           6.0564365     1.9531737     2.1754987
O           5.0026462     0.2324761     2.1636396
C           4.1334937    -0.7064537     1.5559099
C           3.7118136    -0.3665132     0.1995121
C           4.1153441     0.8005652    -0.3797975
H           3.7921283     1.0364252    -1.3909949
C           4.9774137     1.7091051     0.3116167
H           5.3118275     2.6343235    -0.1414700
O           3.6182927    -2.4645400    -0.8724185
C           1.0631498    -2.2008009    -1.8348442
H           0.3548876    -2.7936351    -1.2397271
H           1.8204014    -2.8659906    -2.2474012
H           0.5118236    -1.7101718    -2.6454728
O           3.8056887    -1.6613794     2.2128473
21
057_C8H9NO3_0-5-10-9 (135,) energy =    -590.6766614
N           1.7456609    -1.1734383    -1.0233910
C           0.8564147    -0.1359475    -0.5188207
H           1.3703629     0.4903621     0.2091237
H          -0.0188502    -0.5861370    -0.0293348
H           0.4976884     0.4976233    -1.3400962
C           2.9600261    -1.4973587    -0.4592301
C           5.4639352     1.3528715     1.4868855
H           6.1781911     1.9491598     2.0451981
O           5.1828700     0.1963057     2.1073883
C           4.2793048    -0.7642071     1.5775285
C           3.6998465    -0.4100351     0.2818645
C           4.0090431     0.7816224    -0.3092160
H           3.5795390     1.0214110    -1.2788718
C           4.9093499     1.7064443     0.3047282
H           5.1644749     2.6499274    -0.1620243
O           3.5119722    -2.5741670    -0.6438667
C           1.1083353    -2.1734846    -1.8716739
H           0.3786831    -2.7703040    -1.3065001
H           1.8729358    -2.8408069    -2.2669114
H           0.5860780    -1.6714160    -2.6939789
O           4.0591296    -1.7351269     2.2521073
21
057_C8H9NO3_0-5-10-9 (150,) energy =    -590.6748241
N           1.7774395    -1.1120538    -1.0388713
C           0.8540777    -0.0766256    -0.5871558
H           1.3104045     0.5341485     0.1909343
H          -0.0584330    -0.5301353    -0.1739518
H           0.5618755     0.5729281    -1.4219977
C           2.9121112    -1.4823813    -0.3387653
C           5.5234486     1.3984884     1.4168668
H           6.2766944     2.0042583     1.9105407
O           5.3383833     0.2246188     2.0351365
C           4.4057220    -0.7553444     1.5819461
C           3.6792644    -0.3894744     0.3629889
C           3.9121889     0.8185756    -0.2345128
H           3.3972130     1.0567850    -1.1613443
C           4.8418415     1.7584021     0.3043991
H           5.0253286     2.7151567    -0.1688575
O           3.3886705    -2.6063958    -0.4146646
C           1.1768902    -2.1258544    -1.8989318
H           0.4530895    -2.7458848    -1.3508595
H           1.9602539    -2.7748081    -2.2884413
H           0.6573052    -1.6288861    -2.7253793
O           4.2925938    -1.7405959     2.2590077
21
057_C8H9NO3_0-5-10-9 (165,) energy =    -590.6715799
N           1.7944190    -1.0751500    -1.0671725
C           0.8421115    -0.0384702    -0.6719347
H           1.2385724     0.5588807     0.1487422
H          -0.1014326    -0.4915099    -0.3340248
H           0.6165304     0.6245978    -1.5166050
C           2.8301986    -1.4901284    -0.2361678
C           5.5726327     1.3703007     1.3645307
H           6.3595078     1.9734149     1.8069265
O           5.4595720     0.1770241     1.9562258
C           4.5038918    -0.8115538     1.5553040
C           3.6454511    -0.4113098     0.4337742
C           3.8293879     0.8133766    -0.1526401
H           3.2495487     1.0672222    -1.0347348
C           4.7897060     1.7513599     0.3278055
H           4.9200482     2.7216486    -0.1353415
O           3.2009882    -2.6544311    -0.2082905
C           1.2226223    -2.1037839    -1.9309452
H           0.4968375    -2.7331599    -1.3960443
H           2.0188682    -2.7460166    -2.3062192
H           0.7148091    -1.6143719    -2.7686350
O           4.4933624    -1.8230223     2.1996336
21
057_C8H9NO3_0-5-10-9 (180,) energy =    -590.6668067
N           1.6750515    -1.0426740    -0.7826894
C           1.5244638    -0.0015932    -1.8031447
H           0.6836584     0.6610302    -1.5625244
H           1.3313603    -0.4521758    -2.7880209
H           2.4320363     0.5964792    -1.8872964
C           2.9429952    -1.4833462    -0.3850025
C           5.5615343     1.3287980     1.5157103
H           6.2930573     1.9246172     2.0534395
O           6.0162745     0.1081538     1.2287538
C           5.2401265    -0.8856205     0.5369829
C           3.9057366    -0.4330345     0.1168419
C           3.4792965     0.8160163     0.4940338
H           2.4520225     1.1037804     0.2997292
C           4.3183672     1.7437676     1.1743818
H           3.9717628     2.7340795     1.4427733
O           3.1763071    -2.6730409    -0.2386957
C           0.6657139    -2.0939471    -0.8880150
H          -0.3217418    -1.6217172    -0.9158409
H           0.7318703    -2.7526896    -0.0220586
H           0.7941001    -2.7045948    -1.7932634
O           5.7877615    -1.9373833     0.3657639
