21
057_C8H9NO3_16-0-5-10 (-165,) energy =    -590.6799877
N           1.6846183    -1.3475045    -1.2448277
C           1.9850252    -0.4467352    -2.3517393
H           1.3263169     0.4346785    -2.3458204
H           1.8213057    -0.9856184    -3.2904459
H           3.0260334    -0.1370629    -2.3359273
C           2.2035101    -1.2262240     0.0180405
C           5.3342660     1.4867037     1.1014344
H           6.1945166     2.1141695     1.3089970
O           5.5405607     0.6881485     0.0422717
C           4.5707640    -0.2245872    -0.4350737
C           3.3086098    -0.2253648     0.2922116
C           3.1602725     0.5700686     1.3956736
H           2.2423919     0.4895773     1.9701754
C           4.1797224     1.4777946     1.8068757
H           4.0525796     2.1288129     2.6630516
O           1.7434937    -1.8406468     0.9803186
C           0.4204435    -2.0651662    -1.3787152
H          -0.4248529    -1.3623753    -1.4116697
H           0.2978748    -2.7289787    -0.5249466
H           0.4249236    -2.6476816    -2.3062270
O           4.8914533    -0.9044191    -1.3826207
21
057_C8H9NO3_16-0-5-10 (-150,) energy =    -590.6766631
N           1.7168140    -1.4242856    -1.2766159
C           2.0530824    -0.5137172    -2.3676717
H           1.5668403     0.4672734    -2.2532063
H           1.6989086    -0.9583316    -3.3027231
H           3.1309489    -0.3927068    -2.4486173
C           2.3070547    -1.3658723    -0.0361170
C           5.2269647     1.5636126     1.0787335
H           6.0351349     2.2557011     1.2897662
O           5.5003817     0.7810774     0.0223411
C           4.6083216    -0.2060165    -0.4541038
C           3.3423573    -0.2960042     0.2592171
C           3.1258621     0.4848812     1.3614617
H           2.2129726     0.3390311     1.9310062
C           4.0725730     1.4669276     1.7775695
H           3.8909444     2.1076318     2.6317050
O           1.9142870    -2.0493124     0.9072819
C           0.3516891    -1.9431918    -1.3320061
H          -0.3735687    -1.1161038    -1.3267105
H           0.1812029    -2.5813359    -0.4667485
H           0.2092864    -2.5244589    -2.2493037
O           4.9890591    -0.8723520    -1.3897051
21
057_C8H9NO3_16-0-5-10 (-135,) energy =    -590.6714715
N           1.7322591    -1.4949010    -1.2695789
C           2.1094243    -0.6086853    -2.3684070
H           1.7407979     0.4193499    -2.2237947
H           1.6633211    -0.9994314    -3.2883091
H           3.1900529    -0.6025641    -2.4977974
C           2.3867259    -1.4694208    -0.0520025
C           5.1432625     1.6156166     1.0640825
H           5.9095242     2.3551087     1.2701863
O           5.4615431     0.8451978     0.0103534
C           4.6323694    -0.1995605    -0.4524466
C           3.3695822    -0.3530894     0.2561248
C           3.1063398     0.4193898     1.3533656
H           2.2005445     0.2301861     1.9215412
C           3.9976158     1.4548680     1.7649274
H           3.7805974     2.0873717     2.6169184
O           2.0445536    -2.1940625     0.8770328
C           0.2970964    -1.7768537    -1.2227144
H          -0.2763267    -0.8386776    -1.1729052
H           0.0830296    -2.3854991    -0.3453090
H          -0.0083897    -2.3225298    -2.1217814
O           5.0551052    -0.8609301    -1.3735693
21
057_C8H9NO3_16-0-5-10 (-120,) energy =    -590.6649309
N           1.7457867    -1.5604967    -1.2908017
C           2.1607572    -0.7102807    -2.4063204
H           1.8997699     0.3498949    -2.2520070
H           1.6426752    -1.0557126    -3.3064779
H           3.2327953    -0.8031137    -2.5717805
C           2.4662764    -1.5619872    -0.0987883
C           5.0448097     1.6680067     1.0382485
H           5.7633315     2.4544071     1.2423988
O           5.4049677     0.9232716    -0.0208685
C           4.6417288    -0.1713092    -0.4800855
C           3.3922391    -0.4026041     0.2307601
C           3.0866386     0.3458029     1.3333273
H           2.1956983     0.1018043     1.9042081
C           3.9164009     1.4317152     1.7455396
H           3.6654730     2.0457274     2.6017327
O           2.1856913    -2.3362392     0.8065984
C           0.2892446    -1.6016572    -1.1337631
H          -0.1181341    -0.5863029    -1.0040552
H           0.0390175    -2.2127376    -0.2668542
H          -0.1679448    -2.0464319    -2.0237074
O           5.1038621    -0.8104589    -1.3978322
21
057_C8H9NO3_16-0-5-10 (-105,) energy =    -590.6603405
N           2.0807260    -0.9257801    -1.6608319
C           2.1945484    -2.2973361    -2.1876350
H           2.2689584    -2.2288381    -3.2774959
H           1.3404754    -2.9378035    -1.9251820
H           3.1075923    -2.7635108    -1.8068261
C           2.1545429    -0.9380339    -0.2298972
C           4.9622867     1.7316299     1.5509922
H           5.7137235     2.4394778     1.8862673
O           4.4377088     2.0786575     0.3704788
C           3.4057193     1.3298333    -0.2698279
C           3.0723881     0.0714977     0.3904265
C           3.6118985    -0.2215370     1.6170372
H           3.2906879    -1.1386399     2.1020134
C           4.5818529     0.6195634     2.2276120
H           5.0262128     0.3795433     3.1856791
O           1.6983208    -1.8446266     0.4477118
C           0.8255462    -0.3199477    -2.1415932
H           0.8526851    -0.2827263    -3.2347557
H           0.7472745     0.7048868    -1.7722726
H          -0.0560390    -0.8993516    -1.8240620
O           2.9187858     1.8338248    -1.2487307
21
057_C8H9NO3_16-0-5-10 (-90,) energy =    -590.6661815
N           2.0965470    -1.0048470    -1.6602811
C           2.0599248    -2.3466772    -2.2619872
H           2.0651032    -2.2220599    -3.3493121
H           1.1723251    -2.9260245    -1.9712250
H           2.9482485    -2.9084254    -1.9650435
C           2.3125152    -1.0659912    -0.2635910
C           4.8653367     1.8216242     1.5869541
H           5.5499816     2.5817481     1.9500417
O           4.4210624     2.0926135     0.3560389
C           3.4831682     1.2672709    -0.3371106
C           3.1374130     0.0300996     0.3564299
C           3.6056278    -0.1891564     1.6281632
H           3.2936780    -1.1053262     2.1204615
C           4.4865116     0.7172414     2.2764850
H           4.8634988     0.5340781     3.2751290
O           2.0741847    -2.0739059     0.3893551
C           0.8899483    -0.2554667    -2.0528083
H           0.8863980    -0.1357409    -3.1401072
H           0.9048820     0.7406995    -1.6086789
H          -0.0251867    -0.7865038    -1.7478516
O           3.0900111     1.7014145    -1.3895823
21
057_C8H9NO3_16-0-5-10 (-75,) energy =    -590.6720046
N           2.1034946    -1.0785439    -1.6565312
C           1.9428711    -2.3823208    -2.3103111
H           1.8468191    -2.2075176    -3.3863287
H           1.0583831    -2.9302560    -1.9555899
H           2.8232954    -2.9988269    -2.1221985
C           2.4819095    -1.1876939    -0.3149729
C           4.7783620     1.8668570     1.6142112
H           5.3944761     2.6705973     2.0050769
O           4.4312832     2.0738107     0.3403254
C           3.5991275     1.1815828    -0.4032135
C           3.2183174    -0.0310607     0.3155621
C           3.6003454    -0.1918979     1.6242172
H           3.2917840    -1.1072062     2.1202141
C           4.3897662     0.7699961     2.3093852
H           4.6884401     0.6357667     3.3417276
O           2.4341273    -2.2552190     0.2887497
C           0.9573319    -0.2047552    -1.9465519
H           0.9249338     0.0018703    -3.0201010
H           1.0627159     0.7489396    -1.4298603
H           0.0135687    -0.6845687    -1.6456138
O           3.3208763     1.5443086    -1.5182067
21
057_C8H9NO3_16-0-5-10 (-60,) energy =    -590.6767876
N           2.0994300    -1.1249330    -1.6480602
C           1.8486784    -2.3910694    -2.3379038
H           1.6854203    -2.1738176    -3.3979703
H           0.9683348    -2.9173167    -1.9414534
H           2.7137976    -3.0455641    -2.2280407
C           2.6387559    -1.2630005    -0.3803206
C           4.6891329     1.9247510     1.6103322
H           5.2406032     2.7655372     2.0190648
O           4.4262823     2.0821129     0.3081560
C           3.6937768     1.1332308    -0.4651027
C           3.2879096    -0.0627151     0.2676787
C           3.5970305    -0.1815426     1.5987064
H           3.3003782    -1.0987881     2.0985159
C           4.2997644     0.8304410     2.3079378
H           4.5322336     0.7356046     3.3614704
O           2.7607536    -2.3598070     0.1612634
C           1.0242959    -0.1540182    -1.8697984
H           1.0008181     0.1342888    -2.9246968
H           1.1893489     0.7484943    -1.2833547
H           0.0511364    -0.5887558    -1.5963630
O           3.5100408     1.4328845    -1.6184792
21
057_C8H9NO3_16-0-5-10 (-45,) energy =    -590.6800479
N           2.0573696    -1.1684205    -1.6037246
C           1.7515040    -2.4060873    -2.3152009
H           1.5642352    -2.1634884    -3.3660394
H           0.8649866    -2.9106080    -1.9042201
H           2.5981658    -3.0879829    -2.2395262
C           2.7401873    -1.3102553    -0.4192557
C           4.5947854     1.9710885     1.6077417
H           5.0939779     2.8397161     2.0250547
O           4.3816614     2.0992400     0.2920134
C           3.7328101     1.1048995    -0.4945395
C           3.3175519    -0.0823587     0.2458600
C           3.5853865    -0.1775561     1.5863451
H           3.3090567    -1.0993131     2.0896694
C           4.2218771     0.8719522     2.3059365
H           4.4169334     0.8014311     3.3689290
O           2.9980579    -2.4137461     0.0608188
C           1.0662769    -0.1148842    -1.8090362
H           1.1212645     0.2640297    -2.8340671
H           1.2379091     0.7200867    -1.1323886
H           0.0560733    -0.5101223    -1.6274299
O           3.6147911     1.3565823    -1.6683818
21
057_C8H9NO3_16-0-5-10 (-30,) energy =    -590.6818577
N           2.0035938    -1.2251389    -1.5399857
C           1.6735042    -2.4369026    -2.2795409
H           1.5155981    -2.1771991    -3.3316828
H           0.7602606    -2.9124518    -1.8937533
H           2.4953056    -3.1464885    -2.1919543
C           2.8189914    -1.3572680    -0.4494807
C           4.5092962     1.9908344     1.6087852
H           4.9633772     2.8811351     2.0315671
O           4.3267391     2.1017906     0.2854731
C           3.7479869     1.0733579    -0.5071586
C           3.3377196    -0.1135886     0.2350566
C           3.5796232    -0.1951767     1.5800738
H           3.3255185    -1.1220354     2.0858870
C           4.1611809     0.8832904     2.3057709
H           4.3330585     0.8280394     3.3736759
O           3.1953325    -2.4547903    -0.0363247
C           1.0957387    -0.1055659    -1.7562173
H           1.2716274     0.3621491    -2.7300776
H           1.2220370     0.6521009    -0.9842677
H           0.0585513    -0.4654224    -1.7123935
O           3.6738409     1.2920593    -1.6918066
21
057_C8H9NO3_16-0-5-10 (-15,) energy =    -590.6825649
N           1.9592315    -1.2815229    -1.4763209
C           1.6297190    -2.4707209    -2.2495804
H           1.6087366    -2.2209092    -3.3171172
H           0.6446899    -2.8659717    -1.9652946
H           2.3842138    -3.2328083    -2.0609897
C           2.9088696    -1.3821663    -0.4997105
C           4.4589009     2.0267136     1.5671388
H           4.8721278     2.9371047     1.9886411
O           4.2882586     2.1218700     0.2395892
C           3.7689721     1.0633740    -0.5494227
C           3.3776198    -0.1255249     0.1979586
C           3.6105850    -0.1941358     1.5442359
H           3.3842654    -1.1242618     2.0573395
C           4.1461170     0.9111115     2.2672940
H           4.3091519     0.8694492     3.3372194
O           3.4031099    -2.4579111    -0.1597012
C           1.1174368    -0.1192551    -1.7179340
H           1.3785000     0.3793645    -2.6572156
H           1.2105194     0.6011208    -0.9053656
H           0.0698689    -0.4434733    -1.7616614
O           3.7199180     1.2542775    -1.7409468
21
057_C8H9NO3_16-0-5-10 (0,) energy =    -590.6823763
N           1.9099981    -1.2935215    -1.4479808
C           1.5775355    -2.4660778    -2.2461802
H           1.6919120    -2.2455373    -3.3156453
H           0.5386517    -2.7685385    -2.0633503
H           2.2472446    -3.2774727    -1.9657581
C           2.9777727    -1.3636058    -0.5975013
C           4.4300919     2.0474884     1.5335139
H           4.8186871     2.9628086     1.9671990
O           4.2750969     2.1506684     0.2032930
C           3.7923915     1.0874110    -0.5973711
C           3.4095787    -0.1125029     0.1348085
C           3.6266566    -0.1913205     1.4820433
H           3.4115452    -1.1278436     1.9885083
C           4.1312369     0.9201822     2.2200761
H           4.2814894     0.8733757     3.2916853
O           3.5710460    -2.4142973    -0.3540391
C           1.1282107    -0.0975496    -1.7232093
H           1.4491711     0.3963037    -2.6467208
H           1.2107066     0.6136279    -0.9005743
H           0.0737705    -0.3833747    -1.8149178
O           3.7585365     1.2771772    -1.7903464
21
057_C8H9NO3_16-0-5-10 (15,) energy =    -590.6825649
N           1.6999128    -0.6581832    -1.1658773
C           0.5413735    -0.4630852    -2.0263565
H          -0.3511696    -0.9427632    -1.6013862
H           0.7366821    -0.9037022    -3.0113398
H           0.3544636     0.6048397    -2.1273877
C           2.1630731     0.4061985    -0.4459578
C           5.8342872     0.2835275     1.7454039
H           6.8147445     0.2153279     2.2050614
O           5.8177588    -0.2583929     0.5179634
C           4.6563484    -0.2895391    -0.2961422
C           3.4573400     0.2630110     0.3221484
C           3.5314746     0.8442357     1.5583220
H           2.6397991     1.3202429     1.9557669
C           4.7406487     0.8445585     2.3126943
H           4.7972967     1.2819197     3.3019178
O           1.5693010     1.4840866    -0.3940075
C           2.1632394    -2.0314523    -1.0342636
H           1.2936339    -2.6874837    -0.9007083
H           2.8023822    -2.1415325    -0.1583342
H           2.7241435    -2.3541055    -1.9176135
O           4.7877625    -0.7526353    -1.4037760
21
057_C8H9NO3_16-0-5-10 (30,) energy =    -590.6818577
N           1.7717693    -0.6716190    -1.2279710
C           0.5943702    -0.4554214    -2.0593914
H          -0.3225943    -0.8068315    -1.5647401
H           0.7186162    -1.0052032    -2.9983727
H           0.4895319     0.6093111    -2.2640745
C           2.1313140     0.3350293    -0.3742038
C           5.8339722     0.3542661     1.7690028
H           6.8216232     0.3297367     2.2179050
O           5.8234409    -0.2046875     0.5507030
C           4.6522345    -0.3003189    -0.2493112
C           3.4439129     0.2348795     0.3684013
C           3.5126247     0.8300173     1.5993905
H           2.6075924     1.2803891     1.9963351
C           4.7265163     0.8821625     2.3421457
H           4.7771894     1.3335019     3.3253752
O           1.4514215     1.3517617    -0.2296785
C           2.1620077    -2.0663698    -1.0643139
H           1.2690193    -2.6710303    -0.8542368
H           2.8509014    -2.1818878    -0.2288507
H           2.6486101    -2.4481235    -1.9674085
O           4.7918210    -0.7967836    -1.3405294
21
057_C8H9NO3_16-0-5-10 (45,) energy =    -590.6800479
N           1.8492728    -0.6776574    -1.2922338
C           0.6646199    -0.4205212    -2.1058984
H          -0.2606256    -0.7281280    -1.5973137
H           0.7579742    -0.9835168    -3.0399789
H           0.5967281     0.6452088    -2.3230497
C           2.1239504     0.2551104    -0.3207297
C           5.8670771     0.4325257     1.7463919
H           6.8631054     0.4541216     2.1768783
O           5.8529477    -0.1579683     0.5446838
C           4.6690781    -0.3261345    -0.2289828
C           3.4575915     0.2047360     0.3880172
C           3.5301402     0.8265930     1.6069219
H           2.6164155     1.2559076     2.0070790
C           4.7521268     0.9364743     2.3273899
H           4.8037020     1.4131935     3.2984985
O           1.3704897     1.1997438    -0.0870087
C           2.1375533    -2.0982947    -1.1104632
H           1.2308399    -2.6252856    -0.7790167
H           2.9160631    -2.2465563    -0.3645230
H           2.4820151    -2.5394717    -2.0506742
O           4.8102522    -0.8725263    -1.2951463
21
057_C8H9NO3_16-0-5-10 (60,) energy =    -590.6767876
N           1.9092172    -0.6805638    -1.3372402
C           0.7330731    -0.3584465    -2.1464298
H          -0.2062879    -0.6529928    -1.6565751
H           0.8196198    -0.8909252    -3.0985689
H           0.6980949     0.7157132    -2.3303373
C           2.1038140     0.1594001    -0.2538669
C           5.8837349     0.5332325     1.7212260
H           6.8872545     0.6091577     2.1277817
O           5.8646819    -0.1090237     0.5479160
C           4.6695607    -0.3647411    -0.1877284
C           3.4564335     0.1763142     0.4185369
C           3.5335719     0.8412867     1.6156893
H           2.6118038     1.2511642     2.0175540
C           4.7632197     1.0213979     2.3059637
H           4.8165852     1.5385597     3.2560492
O           1.2771231     1.0097845     0.0695638
C           2.0815690    -2.1258189    -1.1660840
H           1.1637102    -2.5771594    -0.7603387
H           2.9117262    -2.3408972    -0.4950648
H           2.3068271    -2.5863781    -2.1323278
O           4.8118731    -0.9840579    -1.2124345
21
057_C8H9NO3_16-0-5-10 (75,) energy =    -590.6720047
N           1.9494310    -0.7054443    -1.3389286
C           0.7945231    -0.2818093    -2.1388086
H          -0.1648006    -0.5787404    -1.6917019
H           0.8853326    -0.7420346    -3.1275151
H           0.7991252     0.8041892    -2.2446385
C           2.0744900     0.0115068    -0.1451175
C           5.8880482     0.6367382     1.6965254
H           6.8987365     0.7794159     2.0660183
O           5.8607097    -0.0918173     0.5764605
C           4.6541530    -0.4496109    -0.1000066
C           3.4419262     0.1167346     0.4847443
C           3.5269677     0.8564482     1.6379958
H           2.5999456     1.2548427     2.0391510
C           4.7659119     1.1262196     2.2784081
H           4.8254635     1.7117135     3.1875850
O           1.1734775     0.7286924     0.2793883
C           2.0016727    -2.1708787    -1.2335560
H           1.0636729    -2.5666863    -0.8152771
H           2.8389969    -2.4800622    -0.6083269
H           2.1557467    -2.5979720    -2.2285926
O           4.7932153    -1.1681094    -1.0574113
21
057_C8H9NO3_16-0-5-10 (90,) energy =    -590.6661810
N           2.0023013    -0.7474857    -1.3320749
C           0.8849850    -0.1928884    -2.1117685
H          -0.1002417    -0.4896013    -1.7254571
H           0.9886731    -0.5520067    -3.1404230
H           0.9397369     0.8979322    -2.1097605
C           2.0715279    -0.1697677    -0.0423869
C           5.8955106     0.7355956     1.6423627
H           6.9098715     0.9503546     1.9637224
O           5.8653861    -0.0959150     0.5963985
C           4.6534373    -0.5614645     0.0009991
C           3.4403727     0.0382014     0.5489963
C           3.5262270     0.8707168     1.6371266
H           2.5958937     1.2656797     2.0339770
C           4.7721943     1.2358567     2.2135883
H           4.8360216     1.9030945     3.0642842
O           1.1078013     0.3749901     0.4804705
C           1.9207010    -2.2189725    -1.3271875
H           0.9588847    -2.5629848    -0.9160768
H           2.7428109    -2.6389385    -0.7462432
H           2.0188947    -2.5817495    -2.3544752
O           4.7853311    -1.3936395    -0.8598456
21
057_C8H9NO3_16-0-5-10 (105,) energy =    -590.6634189
N           1.3620134    -0.8691106    -0.8403285
C           1.7668142    -0.0600025    -1.9902925
H           0.9459221    -0.0620585    -2.7173349
H           2.6742328    -0.4317437    -2.4822320
H           1.9260052     0.9762331    -1.6781102
C           1.8508359    -0.5277428     0.4266578
C           5.7850912     1.0109235     1.1239468
H           6.8175753     1.3319045     1.2145023
O           5.6203242     0.1269818     0.1296051
C           4.3658177    -0.4493015    -0.1949188
C           3.2440890     0.0361220     0.5977319
C           3.4667430     0.9116515     1.6280348
H           2.6184938     1.2029298     2.2411309
C           4.7622009     1.4315440     1.9059577
H           4.9364794     2.1396408     2.7067325
O           1.2133907    -0.7829651     1.4390746
C           1.2991033    -2.3010616    -1.1498655
H           0.5410323    -2.4746102    -1.9221341
H           1.0030482    -2.8490854    -0.2526426
H           2.2704779    -2.6670259    -1.5059734
O           4.3760951    -1.2892132    -1.0640942
21
057_C8H9NO3_16-0-5-10 (120,) energy =    -590.6697818
N           1.4308120    -0.9122839    -0.8296066
C           1.8569502    -0.1050184    -1.9681467
H           1.0069249     0.0091942    -2.6516250
H           2.6946299    -0.5553101    -2.5142638
H           2.1463663     0.8932787    -1.6297657
C           1.9174902    -0.6561424     0.4436283
C           5.7627596     1.0846319     1.1253888
H           6.7812190     1.4485686     1.2107621
O           5.6346462     0.1841001     0.1383400
C           4.4060611    -0.4480743    -0.1722090
C           3.2657704     0.0041226     0.6139460
C           3.4496933     0.8937175     1.6371613
H           2.5929983     1.1541761     2.2526075
C           4.7249543     1.4700289     1.9051359
H           4.8724410     2.1916288     2.6992627
O           1.3408205    -1.0556696     1.4490583
C           1.1528604    -2.3079507    -1.1678202
H           0.3320905    -2.3648293    -1.8918998
H           0.8553755    -2.8402532    -0.2633925
H           2.0473177    -2.7766485    -1.6002389
O           4.4404321    -1.3014383    -1.0277574
21
057_C8H9NO3_16-0-5-10 (135,) energy =    -590.6753339
N           1.5144872    -0.9671683    -0.8322977
C           1.9416032    -0.1821217    -1.9819494
H           1.0703122     0.0069015    -2.6209417
H           2.7133455    -0.6930077    -2.5692546
H           2.3287745     0.7845612    -1.6520611
C           2.0018093    -0.7538222     0.4377093
C           5.7430990     1.1864934     1.1518037
H           6.7409921     1.6010556     1.2485837
O           5.6676241     0.2922716     0.1532294
C           4.4746096    -0.3978151    -0.1733829
C           3.3087010    -0.0166346     0.6136633
C           3.4402294     0.8679322     1.6485264
H           2.5695790     1.0733328     2.2651498
C           4.6823250     1.5083756     1.9289856
H           4.7876560     2.2270939     2.7323824
O           1.4624677    -1.2241597     1.4361500
C           1.0004903    -2.2941189    -1.1551749
H           0.1076426    -2.2186790    -1.7869927
H           0.7342180    -2.8032679    -0.2291018
H           1.7667974    -2.8702312    -1.6921667
O           4.5540307    -1.2322429    -1.0439267
21
057_C8H9NO3_16-0-5-10 (150,) energy =    -590.6797007
N           1.6024675    -1.0384828    -0.8502719
C           2.0253812    -0.2772958    -2.0153959
H           1.1402015    -0.0333625    -2.6157334
H           2.7376812    -0.8350108    -2.6334496
H           2.4879726     0.6616016    -1.7056005
C           2.0898282    -0.8511698     0.4162477
C           5.7283502     1.2595659     1.1828667
H           6.7029140     1.7228045     1.2959988
O           5.7044435     0.3866636     0.1636994
C           4.5496961    -0.3575048    -0.1869534
C           3.3622211    -0.0572446     0.6027332
C           3.4434427     0.8083143     1.6588621
H           2.5614389     0.9500435     2.2770284
C           4.6481571     1.5076714     1.9603598
H           4.7113566     2.2120005     2.7807274
O           1.5656714    -1.3518822     1.4102427
C           0.8488211    -2.2515924    -1.1389431
H          -0.0971271    -2.0129258    -1.6408329
H           0.6337418    -2.7610863    -0.2004276
H           1.4368439    -2.9074686    -1.7951212
O           4.6772653    -1.1622510    -1.0788592
21
057_C8H9NO3_16-0-5-10 (165,) energy =    -590.6822165
N           1.7074507    -1.1115803    -0.8616239
C           2.1101860    -0.3550500    -2.0364995
H           1.2111280    -0.0702443    -2.5971076
H           2.7715085    -0.9365368    -2.6878412
H           2.6254438     0.5604938    -1.7437425
C           2.1917414    -0.9261220     0.4025678
C           5.6897002     1.4003536     1.2024942
H           6.6325820     1.9223826     1.3275449
O           5.7294651     0.5334136     0.1787768
C           4.6254227    -0.2781646    -0.1871106
C           3.4158665    -0.0603877     0.5961314
C           3.4341051     0.8018640     1.6577209
H           2.5415911     0.8810707     2.2717365
C           4.5891378     1.5762234     1.9708847
H           4.6007328     2.2784268     2.7954027
O           1.6797801    -1.4433549     1.3956864
C           0.7532904    -2.1860313    -1.0969418
H          -0.2049795    -1.7868978    -1.4546668
H           0.5901184    -2.7186470    -0.1612332
H           1.1477155    -2.8741322    -1.8556018
O           4.8077498    -1.0625275    -1.0874238
21
057_C8H9NO3_16-0-5-10 (180,) energy =    -590.6823348
N           1.8042498    -1.2461975    -0.9105381
C           2.1833478    -0.4730544    -2.0845388
H           1.2724913    -0.1393575    -2.5967156
H           2.7889691    -1.0649219    -2.7788103
H           2.7497979     0.4135108    -1.8002293
C           2.3129543    -1.0810182     0.3464720
C           5.6834969     1.4258101     1.1528225
H           6.5962716     1.9983370     1.2798714
O           5.7690139     0.5694383     0.1224005
C           4.7111741    -0.2992285    -0.2453580
C           3.4933712    -0.1560471     0.5427370
C           3.4662647     0.6969725     1.6109807
H           2.5740384     0.7202371     2.2298643
C           4.5770027     1.5342638     1.9246985
H           4.5517088     2.2298561     2.7545081
O           1.8241453    -1.6204279     1.3397495
C           0.6671374    -2.1399685    -1.0858756
H          -0.2512815    -1.5683940    -1.2779413
H           0.5391237    -2.7264565    -0.1775588
H           0.8459147    -2.8069806    -1.9375810
O           4.9303672    -1.0642814    -1.1541442
