29
020_C10H16N3+_9-10-22-19 (-165,) energy =    -554.7134031
C           0.3153750     0.4498571    -0.9343980
H           0.5637927     1.4014233    -1.3952266
C          -0.9751496     0.2015507    -0.4662481
H          -1.7485371     0.9585633    -0.5578542
C          -1.2515958    -1.0335810     0.1153951
H          -2.2417129    -1.2746079     0.4886331
C          -0.2179348    -1.9668247     0.2060751
H          -0.3927130    -2.9422806     0.6551426
N           1.0208433    -1.7432871    -0.2490832
C           1.2835419    -0.5509099    -0.8116776
C           2.6889409    -0.3423630    -1.3441760
H           2.7153096     0.5809467    -1.9299537
H           2.9439572    -1.1736308    -2.0240747
N           6.1098730    -0.5344422     1.2437177
H           6.6546513    -1.2189316     0.7042084
H           6.6767404    -0.2927667     2.0640358
C           5.8794340     0.6970660     0.3823037
H           6.8584166     1.0533962     0.0529830
H           5.4099504     1.4397036     1.0304792
C           4.9646342     0.3321560    -0.7829205
H           5.4919427    -0.3638136    -1.4678870
H           4.7752019     1.2513177    -1.3464682
N           3.7091094    -0.2071331    -0.2782861
C           3.9592580    -1.4575722     0.4360774
H           4.4666568    -2.2099984    -0.2035427
H           3.0060588    -1.9003094     0.7357223
C           4.8002096    -1.1873127     1.6727782
H           5.0579347    -2.0995116     2.2159440
H           4.3095465    -0.4778042     2.3421433
29
020_C10H16N3+_9-10-22-19 (-150,) energy =    -554.7134491
C           0.3380780     0.3901129    -1.1309947
H           0.5741568     1.2283386    -1.7801571
C          -0.9495929     0.2276458    -0.6181677
H          -1.7328785     0.9387159    -0.8640689
C          -1.2092234    -0.8601626     0.2117593
H          -2.1957534    -1.0291752     0.6310940
C          -0.1633332    -1.7407008     0.4925819
H          -0.3255801    -2.6030086     1.1359944
N           1.0717699    -1.6005689    -0.0025376
C           1.3191046    -0.5478945    -0.8012141
C           2.7279343    -0.4391110    -1.3572188
H           2.7908896     0.4474698    -1.9945040
H           2.9433455    -1.3110895    -1.9975400
N           6.1182971    -0.4832198     1.2743332
H           6.7511184    -1.0318335     0.6782287
H           6.6397139    -0.2680403     2.1313193
C           5.7511124     0.8001559     0.5460464
H           6.6836298     1.3127134     0.2978961
H           5.1712329     1.3972925     1.2525657
C           4.9232188     0.4560068    -0.6893531
H           5.5642136    -0.0724308    -1.4262729
H           4.6200195     1.4011007    -1.1502705
N           3.7483419    -0.3026712    -0.2961453
C           4.1160061    -1.5764192     0.3108033
H           4.7139470    -2.2135797    -0.3746837
H           3.1973904    -2.1195512     0.5521215
C           4.8942035    -1.3346223     1.5940775
H           5.2551866    -2.2591010     2.0508371
H           4.3043944    -0.7645529     2.3146191
29
020_C10H16N3+_9-10-22-19 (-135,) energy =    -554.7121232
C           0.3426487     0.3282068    -1.2563169
H           0.5590741     1.0497919    -2.0390161
C          -0.9299004     0.2555587    -0.6868210
H          -1.7205083     0.9220028    -1.0192396
C          -1.1640316    -0.6840286     0.3138346
H          -2.1373419    -0.7783799     0.7844076
C          -0.1098304    -1.5138453     0.7011014
H          -0.2548648    -2.2624607     1.4775200
N           1.1113921    -1.4579421     0.1581364
C           1.3318759    -0.5472311    -0.8053949
C           2.7290295    -0.5453316    -1.4018774
H           2.8298714     0.3002356    -2.0889691
H           2.8795805    -1.4555498    -2.0033826
N           6.0638490    -0.4812368     1.3003670
H           6.7766236    -0.8957218     0.6861467
H           6.5268716    -0.2916031     2.1959404
C           5.5763824     0.8184286     0.6777892
H           6.4511205     1.4558689     0.5277104
H           4.9009513     1.2708490     1.4065164
C           4.8460061     0.5023365    -0.6254242
H           5.5816146     0.1409886    -1.3757242
H           4.4388658     1.4435150    -1.0066407
N           3.7715779    -0.4321779    -0.3655745
C           4.2354564    -1.7043226     0.1574436
H           4.9140814    -2.2371567    -0.5417950
H           3.3626021    -2.3370789     0.3382988
C           4.9374328    -1.4910854     1.4907743
H           5.3875317    -2.4052727     1.8849660
H           4.2570944    -1.0573504     2.2261571
29
020_C10H16N3+_9-10-22-19 (-120,) energy =    -554.7113190
C           0.4493616    -0.5568526    -1.3947890
H           0.4412500    -0.6896852    -2.4729684
C          -0.7189432    -0.7111737    -0.6492593
H          -1.6541523    -0.9681642    -1.1379662
C          -0.6607616    -0.5335474     0.7317341
H          -1.5425209    -0.6424694     1.3547038
C           0.5712684    -0.2170394     1.3032072
H           0.6562842    -0.0791106     2.3795168
N           1.7014300    -0.0605796     0.5978578
C           1.6353821    -0.2201987    -0.7363761
C           2.9065476     0.0485818    -1.5386192
H           2.9797546     1.1254081    -1.7305399
H           2.8038598    -0.4289892    -2.5251954
N           5.5617833    -0.6890395     1.5311502
H           6.4644735    -1.0511624     1.1966206
H           5.6364686    -0.6305756     2.5519504
C           5.3478320     0.7030264     0.9467826
H           6.2059863     1.3109672     1.2469028
H           4.4261370     1.0820454     1.3923503
C           5.1951018     0.5584800    -0.5746009
H           6.1608629     0.2312787    -1.0037657
H           4.9838776     1.5458383    -0.9924989
N           4.1390897    -0.3609295    -0.8899777
C           4.3230258    -1.6918191    -0.3746869
H           5.2144464    -2.1736809    -0.8174004
H           3.4649755    -2.3197755    -0.6272769
C           4.4597780    -1.6751210     1.1534907
H           4.7427339    -2.6432979     1.5757333
H           3.5424683    -1.2939263     1.6036379
29
020_C10H16N3+_9-10-22-19 (-105,) energy =    -554.7136407
C           0.5108581    -0.6114981    -1.3339522
H           0.4703665    -0.8394695    -2.3952745
C          -0.6314359    -0.7151752    -0.5402721
H          -1.5765311    -1.0291455    -0.9735436
C          -0.5348340    -0.4112008     0.8160996
H          -1.3956079    -0.4750345     1.4736259
C           0.7078986    -0.0248201     1.3172120
H           0.8237407     0.2148156     2.3725802
N           1.8128453     0.0819142     0.5638867
C           1.7115059    -0.2001447    -0.7487568
C           2.9517099     0.0145422    -1.6145561
H           3.0290760     1.0790747    -1.8634465
H           2.7970716    -0.5077826    -2.5692604
N           5.4022862    -0.7145957     1.5331550
H           6.3597768    -0.9959856     1.2852197
H           5.3652363    -0.6936138     2.5573618
C           5.1416796     0.6820386     0.9763030
H           5.9117771     1.3389737     1.3900888
H           4.1454004     0.9653635     1.3217062
C           5.1718707     0.5857560    -0.5556598
H           6.1950332     0.3268345    -0.8810128
H           4.9504699     1.5730317    -0.9683420
N           4.2301044    -0.3877755    -1.0462591
C           4.4331195    -1.7183856    -0.5281430
H           5.3924988    -2.1261079    -0.8913998
H           3.6487250    -2.3892094    -0.8893780
C           4.4233928    -1.7604221     1.0084982
H           4.7434527    -2.7256482     1.4107390
H           3.4471698    -1.4759965     1.3998375
29
020_C10H16N3+_9-10-22-19 (-90,) energy =    -554.7151791
C           0.4593748    -0.5359604    -1.2969583
H           0.3777330    -0.7569375    -2.3576307
C          -0.6702976    -0.5449478    -0.4821591
H          -1.6473019    -0.7740651    -0.8974734
C          -0.5212658    -0.2597980     0.8750815
H          -1.3705779    -0.2549444     1.5502529
C           0.7580287     0.0151531     1.3504078
H           0.9166976     0.2357587     2.4042449
N           1.8539298     0.0326136     0.5728492
C           1.7052218    -0.2330183    -0.7357363
C           2.9297859    -0.1372928    -1.6513622
H           2.9600355     0.8706683    -2.0844182
H           2.7726296    -0.8157206    -2.5003486
N           5.3658646    -0.6694085     1.5285846
H           6.3517490    -0.8498367     1.2987069
H           5.3024044    -0.6799343     2.5515796
C           4.9782637     0.7088574     1.0008027
H           5.6762152     1.4265902     1.4405505
H           3.9534990     0.8820652     1.3330568
C           5.0437804     0.6643695    -0.5313208
H           6.0967482     0.5455570    -0.8412469
H           4.7091861     1.6310037    -0.9166430
N           4.2489324    -0.4000836    -1.0991777
C           4.5751271    -1.7096460    -0.5835841
H           5.5905219    -1.9952487    -0.9084369
H           3.8914821    -2.4577094    -0.9947876
C           4.5079217    -1.7892366     0.9495804
H           4.9023898    -2.7302243     1.3429656
H           3.4967119    -1.6064474     1.3116517
29
020_C10H16N3+_9-10-22-19 (-75,) energy =    -554.7152770
C           0.4461165    -0.1854868    -1.3276067
H           0.3512701    -0.1316280    -2.4090291
C          -0.6775239    -0.0983320    -0.5126256
H          -1.6652657     0.0249748    -0.9470111
C          -0.5109717    -0.1706556     0.8720729
H          -1.3566253    -0.1069413     1.5487691
C           0.7780394    -0.3262186     1.3681140
H           0.9506848    -0.3853990     2.4409362
N           1.8723855    -0.4134203     0.5889484
C           1.7080211    -0.3453384    -0.7397111
C           2.9283032    -0.4585291    -1.6641926
H           2.9070204     0.3907109    -2.3599392
H           2.7958631    -1.3477380    -2.2948077
N           5.4241052    -0.5751528     1.5255959
H           6.4232431    -0.6266186     1.2880331
H           5.3715651    -0.5685457     2.5492085
C           4.8484405     0.7240412     0.9722366
H           5.4519138     1.5399598     1.3794688
H           3.8200688     0.7709380     1.3297911
C           4.8955931     0.6558612    -0.5607489
H           5.9506849     0.6915983    -0.8839692
H           4.4146308     1.5538985    -0.9580135
N           4.2638896    -0.5266555    -1.1005066
C           4.7744314    -1.7621979    -0.5507798
H           5.8207482    -1.9046094    -0.8731616
H           4.2064921    -2.6106927    -0.9418316
C           4.7194554    -1.8139297     0.9820452
H           5.2362080    -2.6834288     1.3974817
H           3.6897749    -1.7502978     1.3339410
29
020_C10H16N3+_9-10-22-19 (-60,) energy =    -554.7151351
C           0.5300253     0.0831584    -1.2788833
H           0.4893611     0.3476493    -2.3318142
C          -0.5844469     0.2563943    -0.4607372
H          -1.5076183     0.6600544    -0.8661015
C          -0.4894555    -0.0933446     0.8857944
H          -1.3295582     0.0229607     1.5624840
C           0.7243845    -0.5947953     1.3489709
H           0.8408976    -0.8729745     2.3946616
N           1.8030754    -0.7718567     0.5682142
C           1.7052825    -0.4439649    -0.7316761
C           2.8936546    -0.7252128    -1.6555897
H           2.8119229    -0.0555196    -2.5216186
H           2.7843329    -1.7400572    -2.0586020
N           5.3515858    -0.4920562     1.5208276
H           6.3555244    -0.4334267     1.3066449
H           5.2736324    -0.4739585     2.5427230
C           4.6450852     0.7225849     0.9303247
H           5.1478491     1.6093052     1.3262828
H           3.6160337     0.6680695     1.2833274
C           4.7218730     0.6360238    -0.6022251
H           5.7678208     0.7995738    -0.9122979
H           4.1388079     1.4619290    -1.0196960
N           4.2524890    -0.6235393    -1.1382616
C           4.9001246    -1.7748428    -0.5466540
H           5.9641551    -1.7831906    -0.8391779
H           4.4596120    -2.6952806    -0.9386770
C           4.8053355    -1.8112054     0.9836573
H           5.4029875    -2.6103049     1.4306861
H           3.7620966    -1.8571663     1.3007247
29
020_C10H16N3+_9-10-22-19 (-45,) energy =    -554.7137558
C           0.6412055     0.1765477    -1.2481288
H           0.6454079     0.4851059    -2.2894259
C          -0.4615803     0.4395246    -0.4345266
H          -1.3270932     0.9610868    -0.8324341
C          -0.4302399     0.0203537     0.8933772
H          -1.2649824     0.1970390     1.5636827
C           0.7131480    -0.6359585     1.3493785
H           0.7776741    -0.9746008     2.3816859
N           1.7773398    -0.8964889     0.5760535
C           1.7391072    -0.5026966    -0.7121094
C           2.9041060    -0.8975705    -1.6167420
H           2.7580792    -0.3929181    -2.5808365
H           2.8356425    -1.9708442    -1.8260431
N           5.3206686    -0.4620609     1.5204822
H           6.3198322    -0.3141678     1.3289074
H           5.2213563    -0.4742717     2.5406813
C           4.5216234     0.6988135     0.9416165
H           4.9481933     1.6183574     1.3517291
H           3.5010636     0.5571949     1.2932879
C           4.6085169     0.6507375    -0.5933864
H           5.6306963     0.9299037    -0.8960929
H           3.9442265     1.4230004    -0.9921385
N           4.2801005    -0.6360416    -1.1773698
C           5.0398020    -1.7206687    -0.5855479
H           6.1047598    -1.5945471    -0.8422878
H           4.7274050    -2.6757602    -1.0155387
C           4.8999088    -1.8073203     0.9392446
H           5.5455435    -2.5671827     1.3879423
H           3.8547641    -1.9467271     1.2251835
29
020_C10H16N3+_9-10-22-19 (-30,) energy =    -554.7112221
C           0.6468759     0.1876241    -1.2605798
H           0.6840494     0.4661065    -2.3095440
C          -0.4477995     0.5399894    -0.4682937
H          -1.2733789     1.1047457    -0.8911920
C          -0.4621941     0.1484648     0.8675980
H          -1.2946698     0.3903506     1.5201979
C           0.6307043    -0.5700401     1.3564808
H           0.6564472    -0.8911391     2.3960414
N           1.6869939    -0.9128869     0.6068537
C           1.6907913    -0.5457471    -0.6914829
C           2.8444581    -1.0426784    -1.5504227
H           2.6504101    -0.7237288    -2.5826890
H           2.8192111    -2.1368365    -1.5573121
N           5.3180532    -0.5037882     1.4884738
H           6.2991853    -0.2752812     1.2835977
H           5.2445602    -0.5723420     2.5087429
C           4.4204668     0.6186134     0.9844433
H           4.7926289     1.5493180     1.4214419
H           3.4252067     0.3861991     1.3594685
C           4.4546088     0.6465163    -0.5538151
H           5.4350751     1.0294906    -0.8775459
H           3.7115612     1.3755298    -0.8891618
N           4.2224671    -0.6341568    -1.2009356
C           5.0960803    -1.6675666    -0.6737653
H           6.1394663    -1.4222118    -0.9303069
H           4.8785108    -2.6252554    -1.1530776
C           4.9811097    -1.8430852     0.8460076
H           5.6800613    -2.5805027     1.2500770
H           3.9536957    -2.0708159     1.1414902
29
020_C10H16N3+_9-10-22-19 (-15,) energy =    -554.7088956
C           0.5845324     0.1482362    -1.3316428
H           0.6512671     0.3130016    -2.4027946
C          -0.5264358     0.5903990    -0.6101863
H          -1.3369630     1.1107187    -1.1118485
C          -0.5762833     0.3451870     0.7591374
H          -1.4225101     0.6610289     1.3604470
C           0.4980049    -0.3231749     1.3503696
H           0.4956164    -0.5300178     2.4187924
N           1.5685482    -0.7523994     0.6696869
C           1.6069447    -0.5257381    -0.6592786
C           2.7787872    -1.1171865    -1.4219226
H           2.5850345    -0.9975974    -2.4953467
H           2.7844460    -2.1950414    -1.2231861
N           5.4386309    -0.5630487     1.4552551
H           6.3729097    -0.2196181     1.1978937
H           5.4584818    -0.7216236     2.4679929
C           4.3974971     0.4990261     1.1226443
H           4.7070074     1.4194868     1.6253338
H           3.4545071     0.1267336     1.5248416
C           4.3094742     0.6595814    -0.4049265
H           5.2257839     1.1515886    -0.7675456
H           3.4838971     1.3421476    -0.6207627
N           4.1325314    -0.5856502    -1.1291417
C           5.1423790    -1.5646473    -0.7802317
H           6.1328246    -1.1982169    -1.0952171
H           4.9729733    -2.4964797    -1.3255505
C           5.1796654    -1.8723027     0.7236553
H           5.9767749    -2.5658374     1.0052969
H           4.2140268    -2.2357646     1.0837985
29
020_C10H16N3+_9-10-22-19 (0,) energy =    -554.7082932
C           0.5732220     0.0786865    -1.3832282
H           0.6723435     0.1295784    -2.4632143
C          -0.5504713     0.6058561    -0.7429986
H          -1.3402444     1.0781988    -1.3195892
C          -0.6390010     0.5082355     0.6426684
H          -1.4958984     0.8952518     1.1843440
C           0.4103196    -0.1053456     1.3305870
H           0.3775514    -0.1970892     2.4143861
N           1.4911560    -0.6167350     0.7288317
C           1.5672350    -0.5316572    -0.6146332
C           2.7593550    -1.1989544    -1.2710355
H           2.5820101    -1.2640810    -2.3512893
H           2.7890047    -2.2299244    -0.8918526
N           5.5673425    -0.6338421     1.4213439
H           6.4494034    -0.1852619     1.1423587
H           5.6680717    -0.8744070     2.4129298
C           4.4214227     0.3571902     1.2446985
H           4.6833045     1.2515858     1.8169943
H           3.5280449    -0.1227302     1.6508163
C           4.2326799     0.6361445    -0.2555207
H           5.0967476     1.2057393    -0.6322776
H           3.3591906     1.2808279    -0.3699112
N           4.0841840    -0.5638138    -1.0549760
C           5.1892037    -1.4813877    -0.8731631
H           6.1193904    -1.0168308    -1.2367835
H           5.0387360    -2.3817698    -1.4750263
C           5.3779781    -1.8975831     0.5940913
H           6.2571319    -2.5274573     0.7553654
H           4.4888060    -2.3916148     0.9932399
29
020_C10H16N3+_9-10-22-19 (15,) energy =    -554.7089018
C           0.5734867     0.0253989    -1.4067255
H           0.7061709    -0.0073019    -2.4838093
C          -0.5576264     0.6193419    -0.8426908
H          -1.3214359     1.0593311    -1.4769584
C          -0.6882877     0.6296019     0.5432838
H          -1.5529994     1.0715438     1.0275400
C           0.3275217     0.0518727     1.3082700
H           0.2615758     0.0436026     2.3942995
N           1.4149460    -0.5225419     0.7801387
C           1.5313533    -0.5409640    -0.5627735
C           2.7420406    -1.2603604    -1.1186487
H           2.5781652    -1.4919253    -2.1773049
H           2.8025091    -2.2220396    -0.5863600
N           5.6307204    -0.6886435     1.3899070
H           6.4747624    -0.1691882     1.1167454
H           5.7827071    -0.9951805     2.3565343
C           4.4275734     0.2479498     1.3252412
H           4.6640446     1.1118494     1.9527499
H           3.5703689    -0.2981886     1.7270568
C           4.1732277     0.6188372    -0.1439337
H           5.0049644     1.2358069    -0.5171497
H           3.2777571     1.2404083    -0.1850152
N           4.0339233    -0.5329087    -1.0153207
C           5.1940188    -1.3994632    -0.9482163
H           6.0763497    -0.8625861    -1.3286050
H           5.0544248    -2.2686327    -1.5978498
C           5.4832074    -1.8988421     0.4774027
H           6.4080921    -2.4772370     0.5509605
H           4.6535108    -2.4831829     0.8821035
29
020_C10H16N3+_9-10-22-19 (30,) energy =    -554.7119121
C          -0.0614872    -0.7978901    -0.4100058
H          -0.3203981    -1.8210615    -0.1533187
C          -1.0297613     0.2078582    -0.3995919
H          -2.0574595    -0.0206024    -0.1326480
C          -0.6526171     1.5054767    -0.7360465
H          -1.3714258     2.3184387    -0.7436233
C           0.6841148     1.7422423    -1.0647136
H           1.0174936     2.7445315    -1.3267057
N           1.6203108     0.7861270    -1.0884796
C           1.2470737    -0.4687129    -0.7703895
C           2.3278076    -1.5306486    -0.8684696
H           2.5647790    -1.7131235    -1.9214215
H           1.9337814    -2.4735844    -0.4693690
N           5.9111496     0.0439188     0.9348249
H           5.7481221     1.0359491     0.7196641
H           6.8057130    -0.0046066     1.4345308
C           4.7784442    -0.4534207     1.8203585
H           4.7507217     0.1895259     2.7034167
H           5.0392017    -1.4743219     2.1068203
C           3.4811112    -0.4067887     1.0221065
H           3.2206968     0.6385873     0.7851761
H           2.6859015    -0.7971891     1.6655912
N           3.6063524    -1.2440128    -0.1685795
C           4.6280895    -0.6854768    -1.0554628
H           4.3940694     0.3451594    -1.3781012
H           4.7037587    -1.2981683    -1.9587408
C           5.9896715    -0.7310631    -0.3716991
H           6.7786389    -0.2752909    -0.9746835
H           6.2652394    -1.7530915    -0.1032070
29
020_C10H16N3+_9-10-22-19 (45,) energy =    -554.7148999
C          -0.1089474    -0.7773598    -0.4881982
H          -0.4196779    -1.7901924    -0.2477150
C          -1.0458257     0.2517350    -0.5822353
H          -2.1005588     0.0525545    -0.4163643
C          -0.6028649     1.5372650    -0.8875609
H          -1.2947313     2.3691294    -0.9706665
C           0.7644304     1.7353909    -1.0812673
H           1.1497971     2.7263951    -1.3129468
N           1.6732981     0.7539091    -1.0048588
C           1.2387111    -0.4865945    -0.7181555
C           2.2878381    -1.5903729    -0.6960467
H           2.4747791    -1.9422658    -1.7174113
H           1.8879096    -2.4504812    -0.1445354
N           5.9099222     0.0799184     0.8946546
H           5.6749227     1.0704974     0.7507798
H           6.8426908     0.0584986     1.3208502
C           4.8827272    -0.5324845     1.8351999
H           4.8946464     0.0548804     2.7564985
H           5.2211462    -1.5512435     2.0350681
C           3.5217991    -0.5171693     1.1481819
H           3.1783160     0.5233226     1.0168165
H           2.8096569    -1.0102580     1.8184346
N           3.5971338    -1.2522755    -0.1094359
C           4.5171231    -0.5939310    -1.0363037
H           4.2123979     0.4390687    -1.2745938
H           4.5425295    -1.1492488    -1.9789793
C           5.9274224    -0.6163918    -0.4585392
H           6.6483079    -0.0883366    -1.0872287
H           6.2683124    -1.6368032    -0.2708970
29
020_C10H16N3+_9-10-22-19 (60,) energy =    -554.7159044
C          -0.1636002    -0.8066498    -0.7218301
H          -0.4923939    -1.8398124    -0.6469556
C          -1.0806126     0.2189070    -0.9363948
H          -2.1396878    -0.0016892    -1.0331208
C          -0.6149561     1.5318865    -1.0193046
H          -1.2929434     2.3630495    -1.1834409
C           0.7524192     1.7544646    -0.8806249
H           1.1552314     2.7639316    -0.9328285
N           1.6475402     0.7740673    -0.6803792
C           1.1942490    -0.4865092    -0.6064961
C           2.2222929    -1.6004764    -0.4128741
H           2.3377920    -2.1549630    -1.3534713
H           1.8334124    -2.3258735     0.3131264
N           5.9653990     0.0855650     0.8130775
H           5.7091438     1.0765332     0.7142714
H           6.9376598     0.0647971     1.1391344
C           5.0474607    -0.5544361     1.8444047
H           5.1585486     0.0099820     2.7733854
H           5.4085996    -1.5760590     1.9799597
C           3.6195633    -0.5284371     1.3092184
H           3.2550746     0.5114449     1.2540853
H           2.9881539    -1.0561782     2.0316132
N           3.5651188    -1.2147616     0.0250016
C           4.3858620    -0.5482798    -0.9806308
H           4.0665964     0.4894721    -1.1698495
H           4.3091210    -1.0896554    -1.9290008
C           5.8476673    -0.5844497    -0.5487376
H           6.5028326    -0.0428413    -1.2352375
H           6.2051121    -1.6077432    -0.4155659
29
020_C10H16N3+_9-10-22-19 (75,) energy =    -554.7158666
C          -0.0330667    -1.1002215    -1.1644650
H          -0.2218276    -2.1568125    -1.3346785
C          -0.9556031    -0.1381202    -1.5685121
H          -1.8785680    -0.4328523    -2.0593660
C          -0.6694886     1.2075915    -1.3365991
H          -1.3571751     1.9917238    -1.6360850
C           0.5332887     1.5260439    -0.7106581
H           0.7971800     2.5640033    -0.5180763
N           1.4266330     0.6084070    -0.3092785
C           1.1429533    -0.6848787    -0.5298506
C           2.1482508    -1.7210085    -0.0306298
H           2.2047243    -2.5451883    -0.7531184
H           1.7785063    -2.1666646     0.9020231
N           5.9469605     0.1485918     0.6254014
H           5.6456379     1.1226031     0.4909758
H           6.9513398     0.1779392     0.8313533
C           5.1801975    -0.4381349     1.8021794
H           5.3857226     0.1921217     2.6707456
H           5.5850644    -1.4400957     1.9595628
C           3.6990083    -0.4771667     1.4422123
H           3.2981718     0.5459533     1.3536040
H           3.1710475    -0.9612722     2.2698830
N           3.5144796    -1.2609466     0.2263438
C           4.1898205    -0.6640593    -0.9169876
H           3.8187955     0.3481278    -1.1535505
H           4.0241816    -1.2854063    -1.8033308
C           5.6930631    -0.6215521    -0.6620912
H           6.2398958    -0.1116547    -1.4589289
H           6.1038603    -1.6210069    -0.5046896
29
020_C10H16N3+_9-10-22-19 (90,) energy =    -554.7143634
C           0.0976868    -1.1116994    -1.2785915
H           0.0008517    -2.1654822    -1.5246149
C          -0.7954764    -0.1732260    -1.7957796
H          -1.6024191    -0.4846771    -2.4526867
C          -0.6298316     1.1684607    -1.4575664
H          -1.3002305     1.9329553    -1.8366833
C           0.4297295     1.5122983    -0.6172130
H           0.5961787     2.5507301    -0.3374642
N           1.2884534     0.6203712    -0.1054453
C           1.1171938    -0.6740237    -0.4292476
C           2.0792866    -1.6609184     0.2181283
H           2.0722300    -2.5971004    -0.3551826
H           1.7276728    -1.9140663     1.2248184
N           5.9682888     0.1217123     0.5483757
H           5.6748632     1.1055926     0.4874075
H           6.9889700     0.1260125     0.6497265
C           5.3161092    -0.5048055     1.7722922
H           5.6237357     0.0816124     2.6413849
H           5.7139315    -1.5193828     1.8425524
C           3.8042564    -0.5065210     1.5708662
H           3.4177569     0.5285995     1.5899740
H           3.3617303    -1.0304774     2.4232178
N           3.4719376    -1.2099454     0.3419274
C           4.0444919    -0.5859009    -0.8376390
H           3.6801653     0.4443274    -0.9987764
H           3.7725603    -1.1645809    -1.7266475
C           5.5663598    -0.5864177    -0.7369564
H           6.0415149    -0.0528937    -1.5637877
H           5.9664692    -1.5997967    -0.6643830
29
020_C10H16N3+_9-10-22-19 (105,) energy =    -554.7112629
C           0.1464658    -1.1385022    -1.3053249
H           0.0998130    -2.2033369    -1.5149945
C          -0.7341696    -0.2496020    -1.9243180
H          -1.4793499    -0.6123905    -2.6262801
C          -0.6366027     1.1074520    -1.6266510
H          -1.2999298     1.8351924    -2.0828157
C           0.3455867     1.5177421    -0.7223663
H           0.4565095     2.5706396    -0.4702921
N           1.1900445     0.6758224    -0.1145548
C           1.0839874    -0.6352888    -0.4007111
C           2.0242736    -1.5567262     0.3580522
H           1.9770487    -2.5599317    -0.0861200
H           1.6764294    -1.6557668     1.3916082
N           6.0095429     0.0526444     0.5306059
H           5.7682869     1.0511615     0.5829659
H           7.0336062    -0.0025086     0.5503956
C           5.4180155    -0.6558085     1.7399930
H           5.8196621    -0.1688452     2.6319174
H           5.7653908    -1.6896876     1.6865688
C           3.8966782    -0.5722978     1.6598480
H           3.5737787     0.4757388     1.8166421
H           3.4959469    -1.1582193     2.4917930
N           3.4336430    -1.1256000     0.4016044
C           3.9508291    -0.4232954    -0.7568862
H           3.6338516     0.6343871    -0.7948791
H           3.5808219    -0.8969056    -1.6716201
C           5.4735036    -0.5093085    -0.7783224
H           5.9152904     0.0774753    -1.5874569
H           5.8206542    -1.5432655    -0.8305446
29
020_C10H16N3+_9-10-22-19 (120,) energy =    -554.7082642
C           0.1410064     0.4177610    -0.4610032
H           0.1045082     1.5016710    -0.4020646
C          -1.0099867    -0.3479505    -0.2622261
H          -1.9595809     0.1322180    -0.0446827
C          -0.9155008    -1.7342816    -0.3482784
H          -1.7829826    -2.3702978    -0.2043271
C           0.3332559    -2.2969491    -0.6256676
H           0.4464016    -3.3770791    -0.6955557
N           1.4416334    -1.5759107    -0.8271185
C           1.3410792    -0.2354011    -0.7505689
C           2.6094926     0.5405380    -1.0500811
H           2.4098619     1.6143787    -0.9428262
H           2.8715548     0.3675997    -2.0995558
N           6.0135036    -0.8526098     1.2042302
H           5.9146578    -1.8605676     1.0247805
H           6.8446523    -0.7408233     1.7949319
C           6.2073056    -0.1373056    -0.1235846
H           7.0852893    -0.5747545    -0.6050836
H           6.3943948     0.9106888     0.1192813
C           4.9397177    -0.2979496    -0.9574510
H           4.8383552    -1.3563382    -1.2733970
H           5.0767878     0.2944920    -1.8665626
N           3.7885060     0.1882058    -0.2220425
C           3.5662122    -0.5343509     1.0166173
H           3.3586465    -1.6085382     0.8604151
H           2.6973267    -0.1212773     1.5366473
C           4.7709836    -0.3659786     1.9361795
H           4.6839772    -0.9552949     2.8523341
H           4.9515428     0.6831934     2.1789609
29
020_C10H16N3+_9-10-22-19 (135,) energy =    -554.7070373
C           0.1996344     0.4616475    -0.4590490
H           0.2483054     1.5463803    -0.4386040
C          -0.9933066    -0.2057389    -0.1713134
H          -1.8903918     0.3531773     0.0785727
C          -1.0089062    -1.5969324    -0.2152477
H          -1.9134221    -2.1587065    -0.0053199
C           0.1757879    -2.2634841    -0.5413030
H           0.2025904    -3.3505922    -0.5835401
N           1.3220989    -1.6372280    -0.8258905
C           1.3291466    -0.2912999    -0.7891601
C           2.6333514     0.3714657    -1.1801718
H           2.4824692     1.4504742    -1.2987986
H           2.9087977    -0.0320250    -2.1626860
N           6.0253776    -0.7986999     1.2270555
H           6.0444001    -1.7936489     0.9680065
H           6.8051784    -0.6506691     1.8769685
C           6.2153355     0.0380045    -0.0275157
H           7.1534650    -0.2755885    -0.4917290
H           6.2901476     1.0751304     0.3056324
C           5.0121696    -0.1648238    -0.9420713
H           5.0188725    -1.1996399    -1.3419083
H           5.1432495     0.5065189    -1.7963941
N           3.7797549     0.1643954    -0.2456600
C           3.5702023    -0.7019394     0.9052669
H           3.4854185    -1.7718997     0.6408364
H           2.6384060    -0.4318658     1.4079140
C           4.6984711    -0.4994932     1.9096907
H           4.6180809    -1.1700802     2.7686433
H           4.7560762     0.5377965     2.2459814
29
020_C10H16N3+_9-10-22-19 (150,) energy =    -554.7080146
C           0.2633199     0.4461111    -0.4927611
H           0.3901375     1.5244598    -0.5188586
C          -0.9611856    -0.1217343    -0.1344337
H          -1.8063136     0.5093715     0.1245587
C          -1.0774575    -1.5091926    -0.1238043
H          -2.0111708    -1.9958953     0.1392623
C           0.0427072    -2.2712310    -0.4671214
H          -0.0100958    -3.3581237    -0.4690561
N           1.2191671    -1.7403241    -0.8165083
C           1.3231282    -0.3986998    -0.8334262
C           2.6591625     0.1501035    -1.2855171
H           2.5552650     1.1904049    -1.6114972
H           2.9591552    -0.4483846    -2.1578925
N           6.0468836    -0.6928890     1.2449302
H           6.2074212    -1.6556639     0.9220231
H           6.7711926    -0.4946809     1.9439515
C           6.1797846     0.2501144     0.0608642
H           7.1661291     0.0869823    -0.3799404
H           6.1137774     1.2618993     0.4659199
C           5.0463753    -0.0291655    -0.9190251
H           5.1844129    -1.0302335    -1.3765521
H           5.1309071     0.7025517    -1.7292789
N           3.7522728     0.1150193    -0.2662694
C           3.6117394    -0.8709074     0.8013145
H           3.6754590    -1.9167735     0.4469647
H           2.6352373    -0.7648975     1.2776507
C           4.6631257    -0.6147687     1.8737294
H           4.6295096    -1.3556108     2.6760557
H           4.5734049     0.3917089     2.2876931
29
020_C10H16N3+_9-10-22-19 (165,) energy =    -554.7100885
C           0.3275076     0.4594051    -0.5347494
H           0.5381593     1.5217628    -0.6166830
C          -0.9291565     0.0089830    -0.1272951
H          -1.7162970     0.7170913     0.1148635
C          -1.1544732    -1.3632810    -0.0470128
H          -2.1178443    -1.7611269     0.2556053
C          -0.1060534    -2.2274975    -0.3719759
H          -0.2426363    -3.3057734    -0.3200563
N           1.1018507    -1.8084654    -0.7664099
C           1.3104375    -0.4825475    -0.8521493
C           2.6793142    -0.0617410    -1.3423694
H           2.6299474     0.9240151    -1.8163760
H           2.9838920    -0.7938167    -2.1071161
N           6.0649642    -0.5963489     1.2528762
H           6.3642365    -1.5039456     0.8741832
H           6.7345810    -0.3534199     1.9912795
C           6.1051293     0.4371912     0.1394783
H           7.1154096     0.4326032    -0.2765163
H           5.8985346     1.4013949     0.6082100
C           5.0437205     0.0863710    -0.8962509
H           5.3167506    -0.8592276    -1.4080411
H           5.0585858     0.8727407    -1.6583879
N           3.7225368     0.0281934    -0.2820636
C           3.6862841    -1.0496684     0.7048035
H           3.9012577    -2.0451823     0.2702522
H           2.6912507    -1.1165240     1.1471644
C           4.6650784    -0.7472046     1.8315162
H           4.7060029    -1.5465686     2.5750767
H           4.4318378     0.2034482     2.3155619
29
020_C10H16N3+_9-10-22-19 (180,) energy =    -554.7120281
C           0.3526827     0.4705167    -0.6672423
H           0.6101122     1.5040022    -0.8800888
C          -0.9271100     0.1287871    -0.2294480
H          -1.6861880     0.8939616    -0.0954461
C          -1.2127427    -1.2112010     0.0235890
H          -2.1965547    -1.5255057     0.3571068
C          -0.1987227    -2.1519182    -0.1663152
H          -0.3822277    -3.2075025     0.0232187
N           1.0314504    -1.8372660    -0.5908790
C           1.2988595    -0.5438654    -0.8420092
C           2.6914247    -0.2386764    -1.3538102
H           2.6851882     0.7037037    -1.9105490
H           2.9808799    -1.0436956    -2.0497724
N           6.0884350    -0.5354343     1.2543706
H           6.5179193    -1.3536231     0.8040909
H           6.7060749    -0.2725725     2.0303382
C           6.0027852     0.5931635     0.2400563
H           7.0109899     0.7661206    -0.1437611
H           5.6555739     1.4716496     0.7875659
C           5.0169541     0.2026057    -0.8554874
H           5.4254638    -0.6454582    -1.4427809
H           4.9371539     1.0527638    -1.5408984
N           3.7082546    -0.0888910    -0.2817496
C           3.8093698    -1.2540771     0.5959439
H           4.1825812    -2.1543917     0.0672719
H           2.8239255    -1.5177014     0.9823064
C           4.7145231    -0.9345571     1.7766470
H           4.8569035    -1.7911269     2.4396528
H           4.3425783    -0.0789993     2.3440541
