24
053_C11H9N3O_19-0-2-9 (-165,) energy =    -664.0946952
N           1.3818990    -0.7825885    -0.5566365
H           1.2703439    -0.3657312     0.3648366
C           2.6390830    -0.6892772    -1.0896459
C           5.3634799     1.3278835     1.4544583
H           6.0228263     1.8476373     2.1428208
C           5.8262383     0.8503834     0.2283499
H           6.8630113     0.9904981    -0.0647699
C           4.9357510     0.1909351    -0.6157938
H           5.2285990    -0.2038582    -1.5817905
C           3.6143992     0.0351112    -0.1906261
N           3.1594136     0.4909382     0.9867422
C           4.0220168     1.1237984     1.7864408
H           3.6239525     1.4821937     2.7336382
O           2.9929389    -1.1515527    -2.1703464
C          -1.8646826    -3.1515343    -1.5105793
H          -2.7510612    -3.7513595    -1.6908906
C          -1.7452578    -2.3923734    -0.3479825
H          -2.5396185    -2.3892920     0.3966974
N          -0.6827372    -1.6334057    -0.0627977
C           0.3202118    -1.6070267    -0.9517693
C           0.3061853    -2.3237884    -2.1598398
H           1.1445973    -2.2549095    -2.8388744
C          -0.8112143    -3.1078830    -2.4261477
H          -0.8581987    -3.6796972    -3.3491936
24
053_C11H9N3O_19-0-2-9 (-150,) energy =    -664.0922207
N           1.2921150    -0.5440968    -0.7348256
H           1.1832680    -0.1279346     0.1884551
C           2.5803812    -0.5199019    -1.2108051
C           5.3385996     1.1909053     1.5143599
H           6.0058010     1.6309467     2.2491659
C           5.8181814     0.7084270     0.2966368
H           6.8763862     0.7646995     0.0569125
C           4.9165567     0.1543154    -0.6090637
H           5.2215841    -0.2369381    -1.5727269
C           3.5675091     0.1014175    -0.2499917
N           3.0961873     0.5640823     0.9180687
C           3.9696348     1.0976213     1.7762466
H           3.5576370     1.4645615     2.7141354
O           2.9488446    -0.9948509    -2.2798662
C          -1.7541536    -3.2584325    -1.3968502
H          -2.5856035    -3.9482449    -1.5008429
C          -1.6630878    -2.4182592    -0.2888925
H          -2.4250494    -2.4406871     0.4885550
N          -0.6666368    -1.5477526    -0.0968019
C           0.2933371    -1.4867144    -1.0288890
C           0.2972726    -2.2718762    -2.1933638
H           1.0953765    -2.1642896    -2.9149847
C          -0.7474713    -3.1743205    -2.3612339
H          -0.7771758    -3.8039396    -3.2466035
24
053_C11H9N3O_19-0-2-9 (-135,) energy =    -664.0879437
N           1.2091174    -0.3189875    -0.9251303
H           1.1018672     0.1078416    -0.0050936
C           2.5235099    -0.3366281    -1.3493002
C           5.2777264     1.0241213     1.5689627
H           5.9428953     1.3728687     2.3529504
C           5.7749966     0.5516439     0.3543629
H           6.8447978     0.5244287     0.1667418
C           4.8758873     0.1173692    -0.6167648
H           5.1944440    -0.2581202    -1.5823021
C           3.5108776     0.1657420    -0.3220246
N           3.0229373     0.6214799     0.8417629
C           3.8943492     1.0418407     1.7625840
H           3.4686596     1.4064244     2.6952453
O           2.9040842    -0.7985070    -2.4179966
C          -1.6108173    -3.3287386    -1.2577425
H          -2.3797707    -4.0944334    -1.2769546
C          -1.5535316    -2.4064190    -0.2152672
H          -2.2799413    -2.4388948     0.5951207
N          -0.6319137    -1.4408038    -0.1271327
C           0.2807483    -1.3638737    -1.1026226
C           0.3071036    -2.2233500    -2.2127169
H           1.0600404    -2.0937081    -2.9785516
C          -0.6550497    -3.2253973    -2.2713195
H          -0.6635489    -3.9158196    -3.1106236
24
053_C11H9N3O_19-0-2-9 (-120,) energy =    -664.0819806
N           1.1317756    -0.1135267    -1.1194886
H           1.0191461     0.3350387    -0.2092169
C           2.4700063    -0.1450383    -1.4977339
C           5.1817128     0.8304230     1.6078424
H           5.8334556     1.0788500     2.4398792
C           5.6977416     0.3846143     0.3909962
H           6.7697083     0.2780173     0.2499063
C           4.8149909     0.0813487    -0.6428254
H           5.1499388    -0.2651081    -1.6136391
C           3.4451070     0.2247923    -0.4051459
N           2.9395341     0.6581178     0.7595654
C           3.7964890     0.9547957     1.7399707
H           3.3568449     1.3047883     2.6717114
O           2.8639171    -0.5640138    -2.5768182
C          -1.4366629    -3.3629868    -1.1075105
H          -2.1385642    -4.1879726    -1.0394641
C          -1.4242275    -2.3607940    -0.1405411
H          -2.1191822    -2.3887649     0.6971123
N          -0.5836921    -1.3192539    -0.1593416
C           0.2855615    -1.2444818    -1.1719847
C           0.3467959    -2.1810142    -2.2164156
H           1.0570275    -2.0471549    -3.0222118
C          -0.5266074    -3.2609650    -2.1631476
H          -0.5049490    -4.0122372    -2.9482123
24
053_C11H9N3O_19-0-2-9 (-105,) energy =    -664.0747706
N           1.0600033     0.0767884    -1.3063988
H           0.9314049     0.5584995    -0.4144045
C           2.4243124     0.0475848    -1.6362796
C           5.0567806     0.6172838     1.6325194
H           5.6861328     0.7609261     2.5054957
C           5.5959166     0.2203076     0.4088187
H           6.6633572     0.0476157     0.3033514
C           4.7419069     0.0525953    -0.6785705
H           5.0969347    -0.2481847    -1.6574461
C           3.3749486     0.2742268    -0.4854912
N           2.8481697     0.6634744     0.6853855
C           3.6786332     0.8314388     1.7175534
H           3.2229114     1.1491050     2.6531566
O           2.8369315    -0.2965904    -2.7315366
C          -1.2405495    -3.3552536    -0.9501491
H          -1.8729363    -4.2238893    -0.7971509
C          -1.2931218    -2.2762312    -0.0719144
H          -1.9709408    -2.2862136     0.7800894
N          -0.5374797    -1.1774350    -0.1957064
C           0.3056147    -1.1210501    -1.2299581
C           0.4240042    -2.1359505    -2.1933173
H           1.1047358    -2.0146107    -3.0270765
C          -0.3580576    -3.2729048    -2.0312755
H          -0.2893647    -4.0840716    -2.7513627
24
053_C11H9N3O_19-0-2-9 (-90,) energy =    -664.0671679
N           0.9860706     0.2305415    -1.4861755
H           0.8251151     0.7618426    -0.6276839
C           2.3785894     0.2205604    -1.7647578
C           4.9143391     0.3843035     1.6224996
H           5.5166124     0.4245032     2.5250306
C           5.4805890     0.0694760     0.3872472
H           6.5429363    -0.1414581     0.3019378
C           4.6598781     0.0343785    -0.7373846
H           5.0388041    -0.1966082    -1.7262868
C           3.2965869     0.2992937    -0.5700290
N           2.7441607     0.6115752     0.6120194
C           3.5441535     0.6530284     1.6802553
H           3.0692162     0.9111619     2.6245775
O           2.8163178    -0.0034323    -2.8773474
C          -1.0361624    -3.3275552    -0.7885318
H          -1.5997953    -4.2249643    -0.5545231
C          -1.1865112    -2.1749991    -0.0225282
H          -1.8747594    -2.1555243     0.8209668
N          -0.5168346    -1.0368300    -0.2474206
C           0.3331317    -1.0132373    -1.2769738
C           0.5456729    -2.1071041    -2.1326136
H           1.2232914    -2.0171759    -2.9738753
C          -0.1465358    -3.2814784    -1.8661961
H          -0.0033219    -4.1510525    -2.5023163
24
053_C11H9N3O_19-0-2-9 (-75,) energy =    -664.0691731
N           0.8895646     0.2750877    -1.1686052
H           0.3016138     0.8528147    -1.7690055
C           2.2236493     0.5163770    -1.5501689
C           5.3552788    -0.1192185     1.2287956
H           6.1234244    -0.2725246     1.9808401
C           5.6725479     0.3405473    -0.0490244
H           6.7018488     0.5545007    -0.3230591
C           4.6436970     0.5237231    -0.9687063
H           4.8222410     0.8907560    -1.9726245
C           3.3320671     0.2381508    -0.5692912
N           3.0189652    -0.2141263     0.6534226
C           4.0161471    -0.3836111     1.5264606
H           3.7306164    -0.7469979     2.5119864
O           2.4569800     1.1460359    -2.5711003
C          -1.2925894    -3.2493401    -0.9070078
H          -1.9276755    -4.1286558    -0.8751038
C          -1.7683685    -2.0450032    -1.4180189
H          -2.7875460    -1.9633674    -1.7921959
N          -1.0348289    -0.9293180    -1.4952117
C           0.2256874    -0.9701123    -1.0435344
C           0.8017901    -2.1266149    -0.4956047
H           1.8105222    -2.1084554    -0.1074167
C           0.0231899    -3.2766202    -0.4392221
H           0.4426529    -4.1892631    -0.0238551
24
053_C11H9N3O_19-0-2-9 (-60,) energy =    -664.0721964
N           0.9105206     0.3021084    -1.3850700
H           0.3087022     0.8701712    -1.9770083
C           2.2453841     0.6170233    -1.6418784
C           5.2187746    -0.1704431     1.2669395
H           5.9449881    -0.3587182     2.0520117
C           5.6158300     0.2533935    -0.0009757
H           6.6664702     0.4036806    -0.2332334
C           4.6384025     0.4865151    -0.9647430
H           4.8794825     0.8365215    -1.9617717
C           3.2979665     0.2767917    -0.6191045
N           2.9068336    -0.1380907     0.5944671
C           3.8548440    -0.3497262     1.5118162
H           3.5073878    -0.6779315     2.4898221
O           2.5295684     1.3287599    -2.5961636
C          -1.2119041    -3.2058577    -0.7584015
H          -1.8388597    -4.0803828    -0.6185754
C          -1.7600308    -1.9929703    -1.1664351
H          -2.8283388    -1.9012348    -1.3555713
N          -1.0434794    -0.8806354    -1.3576774
C           0.2776437    -0.9336057    -1.1395720
C           0.9354721    -2.1081396    -0.7409243
H           2.0041852    -2.1249729    -0.5812507
C           0.1682317    -3.2508843    -0.5496330
H           0.6506241    -4.1750528    -0.2423450
24
053_C11H9N3O_19-0-2-9 (-45,) energy =    -664.0741026
N           0.9273386     0.3074678    -1.5623237
H           0.3140429     0.8715203    -2.1437381
C           2.2497767     0.7009460    -1.6962027
C           5.1087356    -0.2336344     1.2832270
H           5.8049228    -0.4585416     2.0856868
C           5.5571290     0.1859586     0.0311434
H           6.6189146     0.2967959    -0.1707143
C           4.6164418     0.4687456    -0.9559198
H           4.8991820     0.8234796    -1.9403226
C           3.2603696     0.3037055    -0.6506262
N           2.8192158    -0.1038783     0.5481452
C           3.7323793    -0.3581442     1.4896105
H           3.3451736    -0.6772082     2.4556611
O           2.5658632     1.4914347    -2.5775321
C          -1.1292926    -3.1710365    -0.6451681
H          -1.7403703    -4.0395662    -0.4222494
C          -1.7147837    -1.9622219    -1.0116281
H          -2.7969200    -1.8692763    -1.0875571
N          -1.0199427    -0.8551840    -1.2934740
C           0.3162457    -0.9122649    -1.2183625
C           1.0102685    -2.0883523    -0.8922814
H           2.0910663    -2.1163960    -0.8779150
C           0.2655476    -3.2231437    -0.5956676
H           0.7754530    -4.1477400    -0.3383235
24
053_C11H9N3O_19-0-2-9 (-30,) energy =    -664.0749985
N           0.9421924     0.2616324    -1.6875504
H           0.3158556     0.8272844    -2.2516986
C           2.2357893     0.7454959    -1.7013859
C           5.0350866    -0.2877247     1.3017384
H           5.7157024    -0.5368327     2.1103780
C           5.5088104     0.1422585     0.0624276
H           6.5752499     0.2373696    -0.1222219
C           4.5877230     0.4581783    -0.9329483
H           4.8914848     0.8267828    -1.9059991
C           3.2250129     0.3081572    -0.6508140
N           2.7594046    -0.1067920     0.5359252
C           3.6541940    -0.3887106     1.4875883
H           3.2471695    -0.7113727     2.4442578
O           2.5545758     1.6122161    -2.5077822
C          -1.0735720    -3.1731152    -0.5527993
H          -1.6732463    -4.0332030    -0.2731798
C          -1.6761026    -1.9749048    -0.9257577
H          -2.7605816    -1.8823202    -0.9508669
N          -0.9952325    -0.8776005    -1.2739348
C           0.3423776    -0.9363212    -1.2630419
C           1.0510342    -2.1056901    -0.9446725
H           2.1310811    -2.1374536    -0.9957087
C           0.3221601    -3.2287694    -0.5751486
H           0.8430528    -4.1478632    -0.3203660
24
053_C11H9N3O_19-0-2-9 (-15,) energy =    -664.0750313
N           0.9716138     0.2091076    -1.8087785
H           0.3346269     0.7783686    -2.3569572
C           2.2233516     0.7804182    -1.7091287
C           4.9983762    -0.3229161     1.2925675
H           5.6716538    -0.5914178     2.1011610
C           5.4820819     0.1455771     0.0710895
H           6.5497570     0.2527938    -0.0992380
C           4.5695134     0.4858350    -0.9240006
H           4.8821024     0.8869601    -1.8812718
C           3.2048237     0.3163344    -0.6625180
N           2.7297188    -0.1334385     0.5073413
C           3.6165260    -0.4357678     1.4605969
H           3.2010037    -0.7855876     2.4039559
O           2.5260328     1.7132415    -2.4453906
C          -1.0580737    -3.1489956    -0.4884330
H          -1.6606005    -3.9907386    -0.1627765
C          -1.6565721    -1.9559441    -0.8832214
H          -2.7400074    -1.8495733    -0.8797299
N          -0.9720646    -0.8798370    -1.2877746
C           0.3635630    -0.9579991    -1.3130861
C           1.0663903    -2.1266326    -0.9805749
H           2.1438120    -2.1737996    -1.0678707
C           0.3356773    -3.2266734    -0.5512675
H           0.8513571    -4.1449611    -0.2833529
24
053_C11H9N3O_19-0-2-9 (0,) energy =    -664.0743140
N           2.2060809    -2.8635358    -0.3539361
H           2.1799829    -3.8458277    -0.0971845
C           3.4436796    -2.3109767    -0.0905333
C           4.1259566     1.8612908     0.1417016
H           4.2673737     2.9330350     0.2443865
C           5.1361310     1.0421698    -0.3629221
H           6.0918867     1.4608415    -0.6657513
C           4.9022275    -0.3268352    -0.4591815
H           5.6598133    -1.0183298    -0.8096839
C           3.6491320    -0.8170849    -0.0727256
N           2.6726106    -0.0389839     0.4140619
C           2.9196402     1.2704898     0.5227948
H           2.1131171     1.8748099     0.9342799
O           4.3976283    -3.0480467     0.1337377
C          -1.6614095    -1.6491374    -1.2033957
H          -2.7006692    -1.4016690    -1.3942475
C          -1.3241619    -2.7678011    -0.4472121
H          -2.0967827    -3.4182579    -0.0410107
N          -0.0640145    -3.1237516    -0.1695624
C           0.9235268    -2.3584873    -0.6468282
C           0.6971018    -1.2373338    -1.4595701
H           1.5235343    -0.6773033    -1.8769141
C          -0.6180799    -0.8785610    -1.7237156
H          -0.8268850    -0.0128411    -2.3464776
24
053_C11H9N3O_19-0-2-9 (15,) energy =    -664.0750316
N           2.1774942    -2.8521875    -0.2283931
H           2.1568738    -3.8353381     0.0233773
C           3.4422931    -2.3140623    -0.1133560
C           4.1283178     1.8543351     0.1646209
H           4.2721697     2.9243707     0.2808747
C           5.1168306     1.0474636    -0.3987966
H           6.0576111     1.4741295    -0.7354848
C           4.8805562    -0.3200992    -0.5112155
H           5.6220537    -1.0034938    -0.9088856
C           3.6474920    -0.8205593    -0.0771914
N           2.6910130    -0.0539299     0.4652500
C           2.9400415     1.2537009     0.5864012
H           2.1507382     1.8490336     1.0420159
O           4.4097940    -3.0568768     0.0137086
C          -1.6554113    -1.6660324    -1.2500280
H          -2.6875765    -1.4246750    -1.4824291
C          -1.3430063    -2.7669909    -0.4576335
H          -2.1288606    -3.4094304    -0.0640792
N          -0.0936197    -3.1145556    -0.1280656
C           0.9103290    -2.3588423    -0.5878936
C           0.7108583    -1.2550839    -1.4316503
H           1.5492172    -0.7008377    -1.8325645
C          -0.5950208    -0.9053937    -1.7494608
H          -0.7823575    -0.0534696    -2.3975878
24
053_C11H9N3O_19-0-2-9 (30,) energy =    -664.0749985
N           2.1544350    -2.7925167    -0.1102337
H           2.1443394    -3.7793984     0.1274338
C           3.4355164    -2.2771214    -0.1403433
C           4.1751397     1.8787004     0.1828744
H           4.3335572     2.9451919     0.3120659
C           5.1404713     1.0701625    -0.4167863
H           6.0771440     1.4922101    -0.7702760
C           4.8857758    -0.2927927    -0.5450991
H           5.6078895    -0.9781558    -0.9738157
C           3.6597102    -0.7870801    -0.0851770
N           2.7242116    -0.0182218     0.4901694
C           2.9899615     1.2846303     0.6233702
H           2.2177526     1.8819865     1.1048838
O           4.3989903    -3.0345973    -0.1079052
C          -1.6564434    -1.7047148    -1.3112131
H          -2.6833263    -1.4885074    -1.5874614
C          -1.3504687    -2.7953660    -0.5020722
H          -2.1361922    -3.4554598    -0.1384626
N          -0.1084013    -3.1119238    -0.1200413
C           0.8974188    -2.3347397    -0.5408480
C           0.7058810    -1.2361838    -1.3937639
H           1.5439720    -0.6583672    -1.7596143
C          -0.5940814    -0.9204823    -1.7673179
H          -0.7740437    -0.0738616    -2.4244509
24
053_C11H9N3O_19-0-2-9 (45,) energy =    -664.0741026
N           2.1323673    -2.7285086     0.0056063
H           2.1365062    -3.7199967     0.2275606
C           3.4200875    -2.2475598    -0.1734362
C           4.2679698     1.8844599     0.1893255
H           4.4537811     2.9453664     0.3277209
C           5.2114610     1.0567414    -0.4185684
H           6.1582279     1.4573592    -0.7700767
C           4.9206426    -0.2977169    -0.5600694
H           5.6219227    -0.9974219    -0.9998948
C           3.6847090    -0.7654389    -0.0984647
N           2.7688960     0.0227974     0.4827103
C           3.0673026     1.3173175     0.6242984
H           2.3098327     1.9310684     1.1085846
O           4.3605407    -3.0300685    -0.2423735
C          -1.6720862    -1.8035987    -1.3514394
H          -2.6962327    -1.6314543    -1.6659913
C          -1.3488033    -2.8843255    -0.5354472
H          -2.1178728    -3.5801135    -0.2040345
N          -0.1095253    -3.1489273    -0.1088914
C           0.8776164    -2.3266278    -0.4879353
C           0.6687192    -1.2279211    -1.3366896
H           1.4906421    -0.6037604    -1.6591537
C          -0.6291237    -0.9691925    -1.7597781
H          -0.8214459    -0.1246148    -2.4161380
24
053_C11H9N3O_19-0-2-9 (60,) energy =    -664.0721964
N           2.0652581    -2.6071686     0.1174276
H           2.0835998    -3.6015127     0.3324041
C           3.3542531    -2.1766881    -0.1990546
C           4.3935710     1.9084385     0.1932895
H           4.6281877     2.9586640     0.3387319
C           5.3040032     1.0389100    -0.4066544
H           6.2728277     1.3953238    -0.7453620
C           4.9501860    -0.2990564    -0.5590258
H           5.6200211    -1.0292268    -0.9981871
C           3.6899128    -0.7107439    -0.1090889
N           2.8047272     0.1190553     0.4616545
C           3.1609731     1.3982769     0.6090436
H           2.4259232     2.0465476     1.0827386
O           4.2469697    -2.9980536    -0.3615516
C          -1.7232320    -1.9176871    -1.4237357
H          -2.7391658    -1.8122293    -1.7900364
C          -1.3566147    -3.0093844    -0.6415472
H          -2.0830019    -3.7790756    -0.3857988
N          -0.1235589    -3.1983193    -0.1607298
C           0.8129795    -2.2823770    -0.4430192
C           0.5558732    -1.1518455    -1.2348416
H           1.3328051    -0.4335727    -1.4548140
C          -0.7336210    -0.9788351    -1.7230913
H          -0.9615069    -0.1135450    -2.3399841
24
053_C11H9N3O_19-0-2-9 (75,) energy =    -664.0691731
N           1.9715654    -2.4509421     0.2392475
H           2.0085288    -3.4476000     0.4519487
C           3.2548299    -2.0816097    -0.2084344
C           4.5394096     1.9361525     0.1672921
H           4.8356799     2.9716620     0.3053697
C           5.4105853     1.0004464    -0.3898210
H           6.4103048     1.2889332    -0.7023393
C           4.9761918    -0.3140208    -0.5360418
H           5.6088002    -1.0909259    -0.9491615
C           3.6805936    -0.6399925    -0.1157746
N           2.8327001     0.2550452     0.4111036
C           3.2634889     1.5124998     0.5471955
H           2.5548895     2.2149609     0.9822518
O           4.0813805    -2.9464755    -0.4575037
C          -1.7675276    -2.0528516    -1.5249873
H          -2.7613974    -2.0282558    -1.9599195
C          -1.3196913    -3.1754481    -0.8342303
H          -1.9601819    -4.0478659    -0.7156790
N          -0.1043679    -3.2735586    -0.2845434
C           0.7245235    -2.2269298    -0.3944741
C           0.3708500    -1.0409779    -1.0563294
H           1.0547958    -0.2045605    -1.0907380
C          -0.8927036    -0.9692016    -1.6309505
H          -1.1942840    -0.0652656    -2.1537744
24
053_C11H9N3O_19-0-2-9 (90,) energy =    -664.0671679
N           2.1133039    -2.6094522    -0.0194587
H           2.0369586    -2.2913327     0.9491314
C           3.2723815    -2.0313003    -0.6017781
C           4.3633399     1.7723702     0.9056217
H           4.5949714     2.7463434     1.3259008
C           4.9844249     1.3194128    -0.2582885
H           5.7187355     1.9349308    -0.7704197
C           4.6494596     0.0605545    -0.7509032
H           5.1004783    -0.3520441    -1.6460077
C           3.6872532    -0.6850199    -0.0616800
N           3.0908299    -0.2619130     1.0631279
C           3.4294374     0.9419291     1.5310425
H           2.9316121     1.2577102     2.4455889
O           3.8086971    -2.5036521    -1.5860971
C          -1.6455339    -1.7923883    -1.5814228
H          -2.6520207    -1.5740829    -1.9236394
C          -1.3407285    -1.7865558    -0.2231843
H          -2.1086695    -1.5663204     0.5166209
N          -0.1200910    -2.0364643     0.2688139
C           0.8513547    -2.3189041    -0.6026793
C           0.6534971    -2.3788017    -1.9923206
H           1.4734948    -2.6475651    -2.6483279
C          -0.6168208    -2.0967023    -2.4781176
H          -0.8068466    -2.1267049    -3.5478412
24
053_C11H9N3O_19-0-2-9 (105,) energy =    -664.0747707
N           2.0334347    -2.3757169    -0.0398048
H           1.9450060    -1.9952202     0.9044618
C           3.1745947    -1.8427200    -0.6600322
C           4.6012403     1.7648559     1.0398431
H           4.9201226     2.6906749     1.5088613
C           5.1520970     1.3383699    -0.1686137
H           5.9174908     1.9266500    -0.6670852
C           4.7065639     0.1415662    -0.7245243
H           5.0971845    -0.2488684    -1.6570945
C           3.7099729    -0.5699014    -0.0495462
N           3.1796381    -0.1717129     1.1167094
C           3.6228708     0.9718173     1.6450423
H           3.1757018     1.2679207     2.5917788
O           3.6193783    -2.2679164    -1.7134431
C          -1.7736205    -2.0123224    -1.6437524
H          -2.7942939    -1.9027207    -1.9959780
C          -1.4659581    -1.8408754    -0.2967932
H          -2.2446445    -1.5967492     0.4239693
N          -0.2294204    -1.9536329     0.2051362
C           0.7563010    -2.2565657    -0.6435387
C           0.5601392    -2.4789813    -2.0161828
H           1.3979073    -2.7532658    -2.6456157
C          -0.7292522    -2.3377854    -2.5142558
H          -0.9205901    -2.4938285    -3.5726868
24
053_C11H9N3O_19-0-2-9 (120,) energy =    -664.0819806
N           1.9294487    -2.1232331    -0.0815814
H           1.8297198    -1.7071827     0.8454825
C           3.0629358    -1.6389130    -0.7262245
C           4.8244325     1.7304388     1.1430215
H           5.2309406     2.5966918     1.6559805
C           5.3281024     1.3157842    -0.0899117
H           6.1441140     1.8540365    -0.5640336
C           4.7692141     0.1966024    -0.7023512
H           5.1164167    -0.1807142    -1.6572251
C           3.7139277    -0.4525464    -0.0553382
N           3.2264503    -0.0648273     1.1329240
C           3.7769545     1.0039010     1.7146020
H           3.3614365     1.2930971     2.6777389
O           3.4468043    -2.0325718    -1.8183816
C          -1.8853571    -2.2326265    -1.6913337
H          -2.9113825    -2.2410227    -2.0450268
C          -1.5954362    -1.9295378    -0.3633058
H          -2.3933624    -1.6980984     0.3403682
N          -0.3549227    -1.8956924     0.1383315
C           0.6551994    -2.1758062    -0.6910226
C           0.4815454    -2.5205512    -2.0410869
H           1.3412167    -2.7631746    -2.6524410
C          -0.8158952    -2.5321934    -2.5395614
H          -0.9917732    -2.7857857    -3.5816571
24
053_C11H9N3O_19-0-2-9 (135,) energy =    -664.0879437
N           1.8192210    -1.8561233    -0.1312987
H           1.7087533    -1.4212111     0.7845623
C           2.9550936    -1.4239964    -0.7877407
C           5.0183523     1.6774612     1.2315469
H           5.5050628     2.4757990     1.7833444
C           5.4919103     1.2647658    -0.0139211
H           6.3638761     1.7359798    -0.4589495
C           4.8292196     0.2348908    -0.6774565
H           5.1459607    -0.1359965    -1.6453669
C           3.7083121    -0.3317338    -0.0651122
N           3.2473190     0.0560798     1.1337500
C           3.8951645     1.0396581     1.7637049
H           3.4983766     1.3313984     2.7339818
O           3.3016742    -1.8002088    -1.9006771
C          -1.9586455    -2.4524903    -1.7103126
H          -2.9787283    -2.5855051    -2.0562679
C          -1.7000400    -2.0373410    -0.4059029
H          -2.5171145    -1.8413690     0.2865121
N          -0.4694777    -1.8500620     0.0842018
C           0.5649467    -2.0799292    -0.7328519
C           0.4259714    -2.5229019    -2.0580557
H           1.3050377    -2.7110496    -2.6597754
C          -0.8649659    -2.6966289    -2.5444420
H          -1.0148117    -3.0309766    -3.5676450
24
053_C11H9N3O_19-0-2-9 (150,) energy =    -664.0922202
N           1.7034418    -1.5811568    -0.1987319
H           1.5847394    -1.1407798     0.7120425
C           2.8570136    -1.2165376    -0.8494123
C           5.1754484     1.6046565     1.3005744
H           5.7298701     2.3314974     1.8862527
C           5.6298105     1.1835684     0.0507873
H           6.5541474     1.5762352    -0.3637627
C           4.8788549     0.2483196    -0.6574265
H           5.1745496    -0.1229814    -1.6318405
C           3.6957121    -0.2210671    -0.0818148
N           3.2510951     0.1766113     1.1201941
C           3.9820207     1.0701999     1.7920125
H           3.5964496     1.3728444     2.7635047
O           3.1875677    -1.5944398    -1.9684059
C          -1.9908412    -2.6622572    -1.7052303
H          -2.9928383    -2.9223032    -2.0313280
C          -1.7707640    -2.1479201    -0.4289987
H          -2.6004232    -2.0000489     0.2604373
N          -0.5649114    -1.8050131     0.0357282
C           0.4850716    -1.9701916    -0.7793151
C           0.3859624    -2.4948874    -2.0783005
H           1.2751690    -2.6166847    -2.6813820
C          -0.8822653    -2.8342746    -2.5371024
H          -1.0013684    -3.2382399    -3.5390038
24
053_C11H9N3O_19-0-2-9 (165,) energy =    -664.0946952
N           1.5892937    -1.3051821    -0.2867130
H           1.4694707    -0.8675183     0.6240120
C           2.7738521    -1.0288533    -0.9142347
C           5.2874211     1.5195065     1.3554891
H           5.8924186     2.1761768     1.9731352
C           5.7346123     1.0812017     0.1091341
H           6.7044785     1.3898655    -0.2710450
C           4.9165923     0.2391777    -0.6407049
H           5.2026979    -0.1386208    -1.6154781
C           3.6783388    -0.1259909    -0.1074114
N           3.2391490     0.2900682     1.0905004
C           4.0334327     1.0950553     1.8012915
H           3.6505258     1.4152771     2.7682069
O           3.1029022    -1.4286229    -2.0272198
C          -1.9847882    -2.8489954    -1.6668189
H          -2.9574903    -3.2313390    -1.9594516
C          -1.8033016    -2.2461585    -0.4234885
H          -2.6345702    -2.1501047     0.2731695
N          -0.6349118    -1.7539097    -0.0005600
C           0.4167392    -1.8502700    -0.8261589
C           0.3540690    -2.4444785    -2.0975240
H           1.2408463    -2.4975035    -2.7136262
C          -0.8765015    -2.9434663    -2.5110603
H          -0.9661063    -3.4079303    -3.4895472
24
053_C11H9N3O_19-0-2-9 (180,) energy =    -664.0954977
N           1.4897359    -1.0314097    -0.4008418
H           1.3733250    -0.6047387     0.5150358
C           2.7112094    -0.8498849    -0.9871165
C           5.3575785     1.4372693     1.4065695
H           5.9971849     2.0267643     2.0562416
C           5.8077856     0.9774878     0.1690394
H           6.8147235     1.2017658    -0.1718248
C           4.9440278     0.2251119    -0.6235808
H           5.2288789    -0.1629497    -1.5946682
C           3.6601980    -0.0348895    -0.1387957
N           3.2175402     0.4028417     1.0501303
C           4.0549419     1.1232505     1.8011759
H           3.6678872     1.4639794     2.7593782
O           3.0506852    -1.2826449    -2.0849538
C          -1.9323299    -3.0083227    -1.5989452
H          -2.8657674    -3.5050793    -1.8435921
C          -1.7853898    -2.3264460    -0.3924133
H          -2.6049911    -2.2818749     0.3229941
N          -0.6656383    -1.6941556    -0.0286506
C           0.3704711    -1.7227145    -0.8791971
C           0.3370902    -2.3780740    -2.1214570
H           1.2070849    -2.3645500    -2.7628948
C          -0.8422729    -3.0268577    -2.4714547
H          -0.9070456    -3.5451699    -3.4245131
