22
039_C11H9NO_1-0-10-9 (-165,) energy =    -554.5742202
C           2.4257031    -1.4688237    -0.2415642
C           1.6084462    -1.4494277    -1.3553016
C           0.4590308    -2.2676393    -1.5097690
C           0.1360712    -3.1250581    -0.5007114
N           0.9271552    -3.1676471     0.6060788
C           2.0870318    -2.4040647     0.8441283
O           2.6817812    -2.5877323     1.9062066
C           5.7731322     1.2394601     0.1072258
C           5.6777552     0.1296720     0.9449808
C           4.5982552    -0.7484571     0.8479108
C           3.5837977    -0.5464464    -0.1095063
C           3.6864797     0.5965322    -0.9304442
C           4.7643627     1.4703869    -0.8305526
H           1.8625260    -0.7919530    -2.1804053
H          -0.1451857    -2.2171320    -2.4072983
H          -0.7175044    -3.7938296    -0.5145234
H           0.7108442    -3.7975817     1.3703179
H           6.6136804     1.9233797     0.1897312
H           6.4478997    -0.0592155     1.6885407
H           4.5311954    -1.5982149     1.5121736
H           2.9015214     0.8313021    -1.6421809
H           4.8081906     2.3420034    -1.4786231
22
039_C11H9NO_1-0-10-9 (-150,) energy =    -554.5752780
C           2.4217230    -1.4503145    -0.2241523
C           1.7010695    -1.5319149    -1.3971919
C           0.5632368    -2.3680840    -1.5587825
C           0.1675206    -3.1313711    -0.5012130
N           0.8731683    -3.0736217     0.6634150
C           2.0173988    -2.2904889     0.9120765
O           2.5545054    -2.3732283     2.0154197
C           5.7782059     1.2307121     0.0884243
C           5.7500237     0.0533708     0.8368186
C           4.6616270    -0.8144550     0.7588974
C           3.5738613    -0.5273627    -0.0871827
C           3.6088065     0.6737870    -0.8213380
C           4.6969675     1.5389389    -0.7393643
H           2.0270328    -0.9437472    -2.2504598
H           0.0257000    -2.4062266    -2.4983895
H          -0.6837690    -3.8030616    -0.5184923
H           0.5995133    -3.6389434     1.4590712
H           6.6263941     1.9066897     0.1577632
H           6.5813947    -0.1941627     1.4918304
H           4.6424714    -1.7159960     1.3565731
H           2.7609627     0.9495702    -1.4420808
H           4.6932491     2.4621782    -1.3130528
22
039_C11H9NO_1-0-10-9 (-135,) energy =    -554.5748417
C           2.3937592    -1.4142542    -0.2007231
C           1.7730313    -1.6028496    -1.4147918
C           0.6566410    -2.4684885    -1.5879867
C           0.1962279    -3.1500443    -0.5013507
N           0.8132689    -2.9913068     0.7049990
C           1.9323137    -2.1759940     0.9658613
O           2.4115181    -2.1656039     2.0973929
C           5.7807106     1.2156736     0.0746050
C           5.7968939    -0.0168383     0.7312735
C           4.6926948    -0.8647177     0.6712096
C           3.5469707    -0.4949992    -0.0549660
C           3.5417486     0.7497818    -0.7073515
C           4.6465220     1.5976576    -0.6432862
H           2.1572854    -1.0713460    -2.2817318
H           0.1870923    -2.5924869    -2.5562320
H          -0.6449419    -3.8342415    -0.5256849
H           0.4910578    -3.5031736     1.5184240
H           6.6422268     1.8760204     0.1284904
H           6.6750078    -0.3212069     1.2948934
H           4.7044889    -1.8117879     1.1972074
H           2.6538637     1.0626673    -1.2508302
H           4.6170070     2.5599539    -1.1478285
22
039_C11H9NO_1-0-10-9 (-120,) energy =    -554.5729434
C           2.3673350    -1.3893621    -0.2008241
C           1.8482722    -1.6881428    -1.4375613
C           0.7491756    -2.5775443    -1.6151469
C           0.2136911    -3.1674831    -0.5096622
N           0.7375597    -2.9007573     0.7220468
C           1.8340203    -2.0563104     0.9908659
O           2.2429247    -1.9463880     2.1434407
C           5.7806230     1.2029078     0.0701009
C           5.8334408    -0.0844116     0.6107943
C           4.7190410    -0.9186416     0.5537782
C           3.5276168    -0.4763223    -0.0434700
C           3.4876774     0.8156971    -0.5888922
C           4.6034396     1.6516646    -0.5290240
H           2.2936751    -1.2233314    -2.3139382
H           0.3508342    -2.7891939    -2.5999571
H          -0.6215706    -3.8589162    -0.5372595
H           0.3608402    -3.3504093     1.5486811
H           6.6510981     1.8518367     0.1186538
H           6.7481039    -0.4414612     1.0768597
H           4.7598543    -1.9129971     0.9859667
H           2.5687483     1.1690472    -1.0498172
H           4.5504558     2.6531270    -0.9481925
22
039_C11H9NO_1-0-10-9 (-105,) energy =    -554.5706985
C           2.3738038    -1.3961113    -0.2141901
C           1.9440386    -1.8176928    -1.4472358
C           0.8465520    -2.7135641    -1.6111637
C           0.2208508    -3.1745114    -0.4919878
N           0.6522816    -2.7778682     0.7403643
C           1.7354097    -1.9111686     0.9995560
O           2.0495094    -1.6626548     2.1593961
C           5.7774926     1.2110354     0.0881505
C           5.8836450    -0.1292887     0.4671471
C           4.7746015    -0.9701017     0.3911375
C           3.5394542    -0.4815470    -0.0594037
C           3.4450817     0.8624375    -0.4452940
C           4.5553324     1.7052344    -0.3678070
H           2.4582373    -1.4492412    -2.3318945
H           0.5179433    -3.0266617    -2.5946510
H          -0.6213823    -3.8579508    -0.5090469
H           0.2029337    -3.1279250     1.5787841
H           6.6431628     1.8653858     0.1484727
H           6.8337589    -0.5220095     0.8197897
H           4.8587257    -2.0108203     0.6906341
H           2.4927885     1.2481947    -0.7997946
H           4.4636226     2.7468165    -0.6646316
22
039_C11H9NO_1-0-10-9 (-90,) energy =    -554.5696959
C           2.4046514    -1.4297135    -0.2300474
C           2.0520042    -1.9813271    -1.4349931
C           0.9408470    -2.8645697    -1.5777362
C           0.2118875    -3.1638853    -0.4662431
N           0.5538936    -2.6214765     0.7380478
C           1.6312062    -1.7397831     0.9744035
O           1.8328234    -1.3189459     2.1087990
C           5.7723547     1.2238099     0.1196694
C           5.9406068    -0.1504248     0.2971443
C           4.8465264    -1.0097705     0.1918777
C           3.5699595    -0.5072717    -0.0938421
C           3.4106562     0.8741670    -0.2668185
C           4.5041742     1.7343686    -0.1617092
H           2.6428539    -1.7346225    -2.3141510
H           0.6789674    -3.2888170    -2.5393232
H          -0.6490477    -3.8239114    -0.4686579
H           0.0158325    -2.8371325     1.5695477
H           6.6245329     1.8933081     0.2019317
H           6.9247435    -0.5554329     0.5180834
H           4.9788651    -2.0789749     0.3338297
H           2.4233237     1.2735926    -0.4823887
H           4.3645095     2.8034219    -0.2995484
22
039_C11H9NO_1-0-10-9 (-75,) energy =    -554.5705798
C           2.4277861    -1.4557772    -0.2397321
C           2.1559756    -2.1330284    -1.4016448
C           1.0403256    -3.0116313    -1.5331372
C           0.2112503    -3.1615375    -0.4622977
N           0.4588969    -2.4778845     0.6923895
C           1.5274175    -1.5817166     0.9095960
O           1.6216381    -1.0027642     1.9870883
C           5.7679623     1.2268260     0.1298603
C           5.9764770    -0.1523670     0.1132813
C           4.8907006    -1.0218701    -0.0049942
C           3.5854566    -0.5253713    -0.1219680
C           3.3854634     0.8620581    -0.0830478
C           4.4689135     1.7312461     0.0337379
H           2.8210749    -1.9974760    -2.2514521
H           0.8491774    -3.5441032    -2.4568149
H          -0.6629123    -3.8038556    -0.4610760
H          -0.1584714    -2.5754967     1.4903712
H           6.6114141     1.9057827     0.2238076
H           6.9828479    -0.5539917     0.1989849
H           5.0526054    -2.0965797    -0.0079136
H           2.3753625     1.2567292    -0.1443975
H           4.2985147     2.8044843     0.0543818
22
039_C11H9NO_1-0-10-9 (-60,) energy =    -554.5727436
C           2.4289423    -1.4406627    -0.2194577
C           2.2413624    -2.2313308    -1.3275017
C           1.1363070    -3.1211946    -1.4601893
C           0.2220250    -3.1649149    -0.4507889
N           0.3814333    -2.3647571     0.6432389
C           1.4252200    -1.4394546     0.8497395
O           1.4177191    -0.7375713     1.8569403
C           5.7835932     1.2222918     0.1174506
C           5.9874883    -0.1465926    -0.0577251
C           4.8941545    -1.0075903    -0.1614325
C           3.5826275    -0.5118675    -0.1115916
C           3.3896273     0.8631476     0.0958114
C           4.4814921     1.7226793     0.1971713
H           2.9707166    -2.1778212    -2.1324301
H           1.0167269    -3.7426147    -2.3393058
H          -0.6532016    -3.8056231    -0.4541034
H          -0.3041292    -2.3735277     1.3898008
H           6.6330583     1.8949047     0.2024081
H           6.9966409    -0.5479027    -0.1023353
H           5.0536290    -2.0762927    -0.2802395
H           2.3805600     1.2524247     0.1813099
H           4.3156680     2.7864720     0.3459428
22
039_C11H9NO_1-0-10-9 (-45,) energy =    -554.5747189
C           2.4139442    -1.4135649    -0.2075995
C           2.3095212    -2.3061924    -1.2501034
C           1.2205596    -3.2120703    -1.3892132
C           0.2306434    -3.1773781    -0.4531612
N           0.3079898    -2.2826119     0.5737523
C           1.3314442    -1.3361665     0.7802914
O           1.2421746    -0.5584520     1.7273855
C           5.7964010     1.2191387     0.0965182
C           5.9770281    -0.1307807    -0.2081840
C           4.8746937    -0.9801842    -0.2927281
C           3.5713401    -0.4954758    -0.0897355
C           3.4057985     0.8601422     0.2428507
C           4.5082817     1.7085499     0.3243773
H           3.0933587    -2.3161611    -2.0034502
H           1.1703388    -3.9068161    -2.2187526
H          -0.6416739    -3.8217662    -0.4669923
H          -0.4288040    -2.2336672     1.2681607
H           6.6540366     1.8828641     0.1678547
H           6.9766333    -0.5269367    -0.3673761
H           5.0228307    -2.0359522    -0.5048641
H           2.4112855     1.2400504     0.4434559
H           4.3602897     2.7563255     0.5727200
22
039_C11H9NO_1-0-10-9 (-30,) energy =    -554.5753043
C           2.3991550    -1.3989968    -0.2068962
C           2.3651014    -2.3860195    -1.1692075
C           1.2872056    -3.3015068    -1.3121147
C           0.2319115    -3.1933655    -0.4563988
N           0.2405313    -2.2170898     0.4948232
C           1.2525366    -1.2593790     0.7018661
O           1.0959636    -0.4247789     1.5914941
C           5.8026244     1.2209561     0.0893800
C           5.9583077    -0.0992933    -0.3370936
C           4.8543700    -0.9450968    -0.4110842
C           3.5655247    -0.4947387    -0.0670915
C           3.4269498     0.8339880     0.3764762
C           4.5338405     1.6785506     0.4473593
H           3.1934847    -2.4597688    -1.8682649
H           1.2965877    -4.0617476    -2.0836316
H          -0.6399292    -3.8379547    -0.4796299
H          -0.5385599    -2.1160897     1.1354268
H           6.6631411     1.8818054     0.1520868
H           6.9428927    -0.4765215    -0.6012945
H           4.9999210    -1.9791047    -0.7111777
H           2.4501131     1.1933510     0.6718597
H           4.4010314     2.7024056     0.7873412
22
039_C11H9NO_1-0-10-9 (-15,) energy =    -554.5742840
C           2.3969961    -1.3907579    -0.2090059
C           2.4118913    -2.4719724    -1.0685082
C           1.3350061    -3.3859090    -1.2101764
C           0.2187606    -3.1924832    -0.4524112
N           0.1767743    -2.1337637     0.4022160
C           1.1895413    -1.1759271     0.6058406
O           0.9721753    -0.2816054     1.4233053
C           5.8144837     1.2325061     0.0918312
C           5.9413743    -0.0412521    -0.4665215
C           4.8401993    -0.8882934    -0.5415343
C           3.5738928    -0.4955173    -0.0598418
C           3.4664152     0.7914885     0.5049249
C           4.5724960     1.6382174     0.5773299
H           3.2811250    -2.6288056    -1.6989118
H           1.3944082    -4.2141715    -1.9056259
H          -0.6594907    -3.8279340    -0.4824291
H          -0.6406186    -1.9679428     0.9784680
H           6.6745524     1.8940553     0.1528506
H           6.9041577    -0.3821317    -0.8385923
H           4.9856589    -1.8838304    -0.9488296
H           2.5109584     1.1162311     0.8918789
H           4.4557743     2.6250396     1.0180798
22
039_C11H9NO_1-0-10-9 (0,) energy =    -554.5732388
C           2.4341840    -1.4404845    -0.2328545
C           1.2108101    -1.1483619     0.3415833
C           0.0690485    -1.9859293     0.2595598
C           0.1745852    -3.1574639    -0.4286673
N           1.3647724    -3.4734394    -1.0057260
C           2.5476918    -2.7085157    -0.9762964
O           3.5271675    -3.1718744    -1.5620719
C           5.7967952     1.2631555     0.1387489
C           4.5660404     1.5691732     0.7237255
C           3.4908864     0.6959808     0.6001625
C           3.5984205    -0.5187946    -0.1119801
C           4.8495810    -0.8090607    -0.6949519
C           5.9255561     0.0702276    -0.5683356
H           1.0938418    -0.2238229     0.8956242
H          -0.8637880    -1.7026573     0.7314867
H          -0.6325526    -3.8706482    -0.5544953
H           1.4751829    -4.3381975    -1.5231931
H           6.6375001     1.9450926     0.2348974
H           4.4398114     2.4940330     1.2808382
H           2.5577486     0.9814452     1.0734237
H           4.9675905    -1.7300489    -1.2469434
H           6.8742002    -0.1885188    -1.0318969
22
039_C11H9NO_1-0-10-9 (15,) energy =    -554.5742842
C           2.4344989    -1.4332330    -0.2543129
C           1.1743149    -1.0597870     0.1706103
C           0.0314309    -1.8980731     0.0924623
C           0.1814332    -3.1489236    -0.4276745
N           1.4126873    -3.5424433    -0.8544300
C           2.5976537    -2.7810560    -0.8238892
O           3.6227919    -3.3035434    -1.2613921
C           5.7811774     1.2693012     0.1302810
C           4.6158496     1.4686406     0.8736217
C           3.5496504     0.5821383     0.7595559
C           3.6090212    -0.5361305    -0.0982623
C           4.7948179    -0.7239243    -0.8367989
C           5.8609946     0.1678627    -0.7201902
H           1.0290362    -0.0592265     0.5647438
H          -0.9374389    -1.5532795     0.4324739
H          -0.6228914    -3.8685050    -0.5339731
H           1.5517081    -4.4671963    -1.2458229
H           6.6155295     1.9598585     0.2202056
H           4.5380365     2.3136763     1.5529130
H           2.6748796     0.7494279     1.3799895
H           4.8734195    -1.5776853    -1.4948850
H           6.7613956    -0.0048559    -1.3042412
22
039_C11H9NO_1-0-10-9 (30,) energy =    -554.5753041
C           2.4338003    -1.4324932    -0.2458953
C           1.1566162    -1.0007486     0.0435316
C           0.0118774    -1.8396171    -0.0356999
C           0.1864208    -3.1348373    -0.4225473
N           1.4394186    -3.5783796    -0.7244570
C           2.6262282    -2.8202669    -0.6894052
O           3.6790184    -3.3649829    -1.0170876
C           5.7696717     1.2627908     0.1301421
C           4.6632262     1.3805008     0.9734337
C           3.5970583     0.4919880     0.8578364
C           3.6045578    -0.5340274    -0.1062639
C           4.7337997    -0.6502610    -0.9385418
C           5.7982448     0.2423170    -0.8212316
H           1.0104632     0.0373105     0.3288973
H          -0.9761996    -1.4618859     0.1973267
H          -0.6177875    -3.8562736    -0.5170975
H           1.5887274    -4.5361456    -1.0210297
H           6.6045459     1.9525488     0.2216166
H           4.6342167     2.1582540     1.7322130
H           2.7604377     0.5771198     1.5457976
H           4.7725466    -1.4482405    -1.6682207
H           6.6569411     0.1360157    -1.4791382
22
039_C11H9NO_1-0-10-9 (45,) energy =    -554.5747204
C           2.4138317    -1.4287364    -0.2202091
C           1.1270215    -0.9642981    -0.0685186
C          -0.0160780    -1.8077899    -0.1560119
C           0.1791887    -3.1306838    -0.4188033
N           1.4470484    -3.6028660    -0.5944517
C           2.6324561    -2.8424545    -0.5484327
O           3.7055478    -3.3967887    -0.7741808
C           5.7655969     1.2392806     0.1274836
C           4.7240560     1.2879610     1.0550509
C           3.6464044     0.4106140     0.9420033
C           3.5804686    -0.5217943    -0.1073835
C           4.6485693    -0.5787801    -1.0193809
C           5.7234038     0.3008411    -0.9060743
H           0.9778683     0.0955175     0.1228069
H          -1.0165305    -1.4132889    -0.0264245
H          -0.6216806    -3.8566877    -0.5073880
H           1.6060210    -4.5812498    -0.8065050
H           6.6092681     1.9187020     0.2158220
H           4.7553302     2.0001682     1.8755570
H           2.8508216     0.4358779     1.6822743
H           4.6331788    -1.3197878    -1.8095627
H           6.5354672     0.2488403    -1.6266379
22
039_C11H9NO_1-0-10-9 (60,) energy =    -554.5727429
C           2.4009831    -1.4144220    -0.2005507
C           1.1107261    -0.9418443    -0.1962242
C          -0.0231600    -1.7982421    -0.3034146
C           0.1927158    -3.1369361    -0.4378452
N           1.4697660    -3.6170435    -0.4706047
C           2.6483838    -2.8462276    -0.3984999
O           3.7384325    -3.4014458    -0.5016847
C           5.7757633     1.2237927     0.1263360
C           4.8079930     1.1917078     1.1306252
C           3.7165246     0.3290102     1.0219331
C           3.5661668    -0.4992183    -0.1004217
C           4.5616735    -0.4808154    -1.0901951
C           5.6500359     0.3823209    -0.9819327
H           0.9511562     0.1297356    -0.1014388
H          -1.0310635    -1.4018518    -0.2864396
H          -0.5997664    -3.8721389    -0.5273783
H           1.6423649    -4.6082655    -0.5935744
H           6.6287668     1.8920268     0.2104445
H           4.9067412     1.8291342     2.0054613
H           2.9718784     0.2920228     1.8130481
H           4.4793459    -1.1490019    -1.9409659
H           6.4066496     0.3933645    -1.7621248
22
039_C11H9NO_1-0-10-9 (75,) energy =    -554.5705822
C           2.3792966    -1.4049963    -0.1988319
C           1.1007142    -0.9292510    -0.3455650
C          -0.0301055    -1.7899582    -0.4657939
C           0.1837512    -3.1354760    -0.4496581
N           1.4527674    -3.6209980    -0.3232372
C           2.6291588    -2.8488731    -0.2140521
O           3.7177365    -3.4102552    -0.1436416
C           5.7804926     1.2058814     0.1188027
C           4.9033262     1.0645674     1.1942128
C           3.8006070     0.2148608     1.0899052
C           3.5529658    -0.4932684    -0.0938078
C           4.4523803    -0.3599620    -1.1615112
C           5.5528959     0.4892469    -1.0584135
H           0.9451836     0.1469916    -0.3647758
H          -1.0320140    -1.3921511    -0.5715989
H          -0.6065332    -3.8736980    -0.5347077
H           1.6223584    -4.6203202    -0.3239277
H           6.6407004     1.8653639     0.1984685
H           5.0790150     1.6097686     2.1179559
H           3.1228492     0.0974736     1.9314193
H           4.2851639    -0.9261029    -2.0733034
H           6.2369476     0.5883772    -1.8971840
22
039_C11H9NO_1-0-10-9 (90,) energy =    -554.5696958
C           2.3925219    -1.4213855    -0.2266653
C           1.1424796    -0.9439028    -0.5264607
C           0.0044970    -1.7959210    -0.6458279
C           0.1808576    -3.1328378    -0.4509486
N           1.4197513    -3.6192558    -0.1508357
C           2.5997109    -2.8556795    -0.0147666
O           3.6567324    -3.4158697     0.2562513
C           5.7743434     1.2146292     0.1191613
C           5.0027692     0.9130089     1.2425513
C           3.9110023     0.0514496     1.1314994
C           3.5749783    -0.5190387    -0.1035766
C           4.3576262    -0.2120993    -1.2246880
C           5.4497425     0.6493033    -1.1150069
H           1.0157506     0.1254915    -0.6787905
H          -0.9743270    -1.3979218    -0.8840053
H          -0.6184278    -3.8632052    -0.5184464
H           1.5600725    -4.6126562    -0.0063332
H           6.6250089     1.8855437     0.2053794
H           5.2501263     1.3482960     2.2072912
H           3.3132927    -0.1848228     2.0077230
H           4.1080564    -0.6540415    -2.1855531
H           6.0466055     0.8780946    -1.9940977
22
039_C11H9NO_1-0-10-9 (105,) energy =    -554.5706985
C           2.4127025    -1.4459676    -0.2628156
C           1.2040098    -0.9747825    -0.7098922
C           0.0499450    -1.8053885    -0.8204508
C           0.1604942    -3.1113564    -0.4479660
N           1.3519827    -3.5873574     0.0167000
C           2.5374563    -2.8382737     0.1752189
O           3.5357059    -3.3756030     0.6446305
C           5.7495753     1.2373943     0.1179885
C           5.0982761     0.7605107     1.2580566
C           4.0307157    -0.1274171     1.1368416
C           3.6010975    -0.5579093    -0.1270037
C           4.2555629    -0.0673369    -1.2649878
C           5.3258917     0.8208224    -1.1440615
H           1.1269726     0.0718085    -0.9952921
H          -0.8921876    -1.4140836    -1.1845124
H          -0.6564577    -3.8235799    -0.4932993
H           1.4393782    -4.5532955     0.3112361
H           6.5821413     1.9293390     0.2141846
H           5.4204210     1.0835994     2.2445367
H           3.5289931    -0.4999908     2.0252796
H           3.9266253    -0.3921239    -2.2486698
H           5.8267687     1.1865287    -2.0366938
22
039_C11H9NO_1-0-10-9 (120,) energy =    -554.5729433
C           2.4224964    -1.4582578    -0.2652670
C           1.2609486    -1.0187389    -0.8532822
C           0.1029235    -1.8401950    -0.9749800
C           0.1529017    -3.1026052    -0.4644041
N           1.2913926    -3.5423153     0.1465052
C           2.4725227    -2.7956173     0.3334214
O           3.4094673    -3.2929261     0.9518995
C           5.7341369     1.2501658     0.1178697
C           5.1958955     0.6362041     1.2517595
C           4.1421164    -0.2671538     1.1309425
C           3.6093007    -0.5759265    -0.1310594
C           4.1532663     0.0508480    -1.2622350
C           5.2105212     0.9535313    -1.1406571
H           1.2278213    -0.0043285    -1.2436051
H          -0.7980549    -1.4743799    -1.4521962
H          -0.6727923    -3.8048182    -0.5047655
H           1.3322608    -4.4718821     0.5485846
H           6.5578056     1.9524366     0.2158038
H           5.5972392     0.8642659     2.2357371
H           3.7355075    -0.7513683     2.0126493
H           3.7508697    -0.1846073    -2.2442587
H           5.6252077     1.4216855    -2.0296432
22
039_C11H9NO_1-0-10-9 (135,) energy =    -554.5748419
C           2.4161126    -1.4458705    -0.2331848
C           1.3037830    -1.0679033    -0.9505659
C           0.1577791    -1.8991873    -1.0966450
C           0.1624376    -3.1163052    -0.4835496
N           1.2483957    -3.4973225     0.2490821
C           2.4142376    -2.7364690     0.4657385
O           3.2976376    -3.1917399     1.1885373
C           5.7449742     1.2492849     0.1113246
C           5.2999635     0.5404431     1.2294100
C           4.2392452    -0.3568688     1.1223348
C           3.5973680    -0.5592851    -0.1120380
C           4.0577360     0.1566740    -1.2303138
C           5.1211094     1.0516072    -1.1212972
H           1.2981173    -0.0879179    -1.4210567
H          -0.7011630    -1.5749568    -1.6714705
H          -0.6589942    -3.8229436    -0.5305497
H           1.2600267    -4.3934139     0.7227537
H           6.5760342     1.9441742     0.1987531
H           5.7818347     0.6862881     2.1926916
H           3.9101408    -0.9167641     1.9895012
H           3.5899922    -0.0080534    -2.1976189
H           5.4665875     1.5876882    -2.0014777
22
039_C11H9NO_1-0-10-9 (150,) energy =    -554.5752779
C           2.3844088    -1.4209558    -0.2058754
C           1.3311435    -1.1166084    -1.0425447
C           0.2026952    -1.9622698    -1.2196704
C           0.1573809    -3.1323976    -0.5221743
N           1.1827748    -3.4469239     0.3187264
C           2.3300605    -2.6685987     0.5689628
O           3.1546060    -3.0865962     1.3801713
C           5.7600520     1.2351652     0.1065361
C           5.3887503     0.4425985     1.1932645
C           4.3093936    -0.4349221     1.1000913
C           3.5630025    -0.5291572    -0.0896703
C           3.9617239     0.2628202    -1.1836693
C           5.0417277     1.1365515    -1.0866053
H           1.3510533    -0.1737032    -1.5817598
H          -0.6058849    -1.6848478    -1.8848863
H          -0.6561264    -3.8470822    -0.5821624
H           1.1647483    -4.3088456     0.8519531
H           6.6062442     1.9128518     0.1832219
H           5.9451618     0.5032565     2.1250328
H           4.0411759    -1.0574563     1.9432818
H           3.4390252     0.1728242    -2.1318168
H           5.3305739     1.7310520    -1.9495247
22
039_C11H9NO_1-0-10-9 (165,) energy =    -554.5742204
C           2.3713601    -1.4066671    -0.1867352
C           1.3835342    -1.1924550    -1.1285497
C           0.2689689    -2.0504545    -1.3184618
C           0.1627420    -3.1553864    -0.5275770
N           1.1198446    -3.3879381     0.4118417
C           2.2516222    -2.5922352     0.6782359
O           3.0064109    -2.9588783     1.5789765
C           5.7798857     1.2319095     0.1004661
C           5.4862138     0.3485972     1.1378126
C           4.3931308    -0.5140205     1.0546307
C           3.5473815    -0.5047830    -0.0728346
C           3.8768895     0.3788515    -1.1223617
C           4.9681336     1.2374331    -1.0359259
H           1.4365916    -0.3050685    -1.7509211
H          -0.4814043    -1.8328203    -2.0686445
H          -0.6457232    -3.8757381    -0.5868001
H           1.0638745    -4.2012549     1.0143815
H           6.6353643     1.8987518     0.1679929
H           6.1140132     0.3224659     2.0248627
H           4.1846266    -1.2020052     1.8615020
H           3.2941098     0.3824169    -2.0378935
H           5.1922772     1.9028167    -1.8657770
22
039_C11H9NO_1-0-10-9 (180,) energy =    -554.5732377
C           2.3999845    -1.4382639    -0.2180471
C           1.4878522    -1.3236133    -1.2510738
C           0.3566330    -2.1631710    -1.4165639
C           0.1456170    -3.1506586    -0.5014163
N           1.0249959    -3.2896181     0.5265677
C           2.1728222    -2.5093152     0.7692209
O           2.8473890    -2.7999434     1.7580337
C           5.7871215     1.2428971     0.1080367
C           5.5903316     0.2360688     1.0499481
C           4.5033266    -0.6336316     0.9548436
C           3.5691013    -0.5225777    -0.0959946
C           3.7883138     0.5054097    -1.0391632
C           4.8732269     1.3697193    -0.9404660
H           1.6266554    -0.5476828    -1.9953405
H          -0.3233661    -2.0234355    -2.2479629
H          -0.6850361    -3.8471793    -0.5298904
H           0.8961460    -4.0155716     1.2223635
H           6.6350476     1.9182618     0.1854834
H           6.2884402     0.1180226     1.8748603
H           4.3670018    -1.4090515     1.6943975
H           3.1091736     0.6485806    -1.8724119
H           5.0040706     2.1473372    -1.6887000
