20
273_C7H10N2O_9-0-1-2 (-165,) energy =    -457.4970706
C           2.4183294    -0.6520133    -1.0234839
N           1.1054098    -0.3397640    -0.7700701
C           0.0140856    -1.1894249    -1.2083587
H          -0.7911177    -0.5912916    -1.6491084
H          -0.3992613    -1.7830957    -0.3816258
H           0.4114666    -1.8659251    -1.9659657
H           0.9134304     0.3666858    -0.0754619
C           3.2537620     0.8717585     0.9227607
H           2.3297844     1.0345111     1.4629986
C           3.4051419     0.1066292    -0.2316667
N           4.7503075     0.1244095    -0.5659646
C           5.3882888    -0.5414593    -1.6981905
H           4.9122085    -0.2484760    -2.6355392
H           5.3082722    -1.6253968    -1.6049756
H           6.4392184    -0.2425616    -1.7120263
C           5.4216065     0.8822548     0.3514089
H           6.4900387     1.0233088     0.2645874
C           4.5254194     1.3598862     1.2907959
H           4.7664113     1.9813526     2.1421839
O           2.7419436    -1.5112527    -1.8476390
20
273_C7H10N2O_9-0-1-2 (-150,) energy =    -457.4951772
C           2.3623093    -0.5801526    -1.1014489
N           1.0424780    -0.2293083    -0.9012057
C          -0.0195272    -1.2009385    -1.1147805
H          -0.9404954    -0.6937141    -1.4188188
H          -0.2228358    -1.7972069    -0.2137931
H           0.2973429    -1.8704970    -1.9152419
H           0.8750249     0.4668348    -0.1875584
C           3.1689982     0.8832615     0.9006421
H           2.2306829     1.0653208     1.4089282
C           3.3405359     0.1343154    -0.2623317
N           4.6978180     0.1182958    -0.5465114
C           5.3560157    -0.5446068    -1.6688138
H           4.9135771    -0.2286574    -2.6151167
H           5.2517777    -1.6279981    -1.5937309
H           6.4125993    -0.2668699    -1.6480213
C           5.3560377     0.8366792     0.4101147
H           6.4312109     0.9434337     0.3685762
C           4.4397446     1.3235631     1.3257547
H           4.6677908     1.9193845     2.1987326
O           2.6875850    -1.4571039    -1.9043110
20
273_C7H10N2O_9-0-1-2 (-135,) energy =    -457.4915836
C           2.3509834    -0.5280614    -1.2407075
N           1.0199885    -0.1666234    -1.0779169
C          -0.0002108    -1.2111562    -1.0433363
H          -0.9781379    -0.7857877    -1.2879040
H          -0.0598558    -1.7015837    -0.0608804
H           0.2544242    -1.9591008    -1.7955241
H           0.8724114     0.5691386    -0.3978482
C           3.1053500     0.8591789     0.8312536
H           2.1502832     1.0441060     1.3058448
C           3.3091910     0.1453843    -0.3492813
N           4.6769672     0.1100932    -0.5789278
C           5.3644230    -0.5310754    -1.6960997
H           4.9671353    -0.1733739    -2.6478441
H           5.2325387    -1.6134104    -1.6612951
H           6.4252568    -0.2790324    -1.6258248
C           5.3093689     0.7797352     0.4282043
H           6.3873600     0.8643611     0.4346159
C           4.3660091     1.2560777     1.3224337
H           4.5704967     1.8166065     2.2241244
O           2.6868518    -1.4087466    -2.0328557
20
273_C7H10N2O_9-0-1-2 (-120,) energy =    -457.4866349
C           2.3977851    -0.4792770    -1.3699534
N           1.0488788    -0.1324241    -1.2271234
C           0.0986123    -1.2111223    -0.9438127
H          -0.9223639    -0.8515449    -1.1021529
H           0.1882643    -1.5915060     0.0845737
H           0.2884996    -2.0302884    -1.6396800
H           0.9210543     0.6507337    -0.5948214
C           3.0883412     0.8328960     0.7680407
H           2.1158562     1.0275614     1.2011634
C           3.3306427     0.1483030    -0.4235440
N           4.7075929     0.0887712    -0.5912678
C           5.4311926    -0.5347057    -1.6954853
H           5.0878352    -0.1369958    -2.6523951
H           5.2714288    -1.6138124    -1.7019932
H           6.4933700    -0.3125341    -1.5682817
C           5.3060173     0.7132872     0.4633249
H           6.3841502     0.7728300     0.5224992
C           4.3324893     1.1848961     1.3283271
H           4.5075946     1.7135182     2.2550995
O           2.7503286    -1.3378583    -2.1761696
20
273_C7H10N2O_9-0-1-2 (-105,) energy =    -457.4811012
C           2.3923254    -0.4174549    -1.4747777
N           1.0189650    -0.1110330    -1.3372579
C           0.1742790    -1.1952672    -0.8168743
H          -0.8757071    -0.8946999    -0.8788061
H           0.4099886    -1.4592757     0.2254418
H           0.3145404    -2.0796888    -1.4423587
H           0.8976664     0.7188906    -0.7626758
C           3.0082687     0.8138304     0.7287349
H           2.0195398     1.0168388     1.1186806
C           3.2939449     0.1601870    -0.4717649
N           4.6772738     0.0813258    -0.5774024
C           5.4416425    -0.5190429    -1.6669026
H           5.1610586    -0.0740674    -2.6234963
H           5.2531319    -1.5918859    -1.7259727
H           6.5011761    -0.3340240    -1.4748740
C           5.2349779     0.6621483     0.5223479
H           6.3099985     0.7003445     0.6339068
C           4.2298463     1.1256170     1.3561684
H           4.3710090     1.6233606     2.3055226
O           2.7717640    -1.2216704    -2.3204312
20
273_C7H10N2O_9-0-1-2 (-90,) energy =    -457.4820752
C           2.3538718    -0.0901367    -1.4855389
N           0.9820797     0.0825514    -1.1197865
C           0.3588939    -1.1120537    -0.5148879
H           0.3984674    -1.9952972    -1.1695777
H          -0.6870633    -0.8878968    -0.2858025
H           0.8677995    -1.3524153     0.4230173
H           0.5059214     0.2488193    -2.0077883
C           3.0680739     0.8463143     0.8074940
H           2.0969687     1.1624375     1.1601443
C           3.3002696     0.2528812    -0.4337187
N           4.6677877     0.0218851    -0.5378945
C           5.3733417    -0.5741106    -1.6670371
H           5.2798263     0.0514892    -2.5565423
H           4.9623602    -1.5580332    -1.9021021
H           6.4258541    -0.6751752    -1.3918746
C           5.2690692     0.4613143     0.6031471
H           6.3411996     0.3806881     0.7212191
C           4.3078972     0.9796009     1.4595144
H           4.4945147     1.4090120     2.4342174
O           2.6812673    -0.3815799    -2.6333686
20
273_C7H10N2O_9-0-1-2 (-75,) energy =    -457.4859260
C           2.3686459    -0.0558789    -1.5546561
N           0.9953100     0.0294289    -1.2294827
C           0.4098340    -1.0599382    -0.4292080
H           0.4251354    -2.0276778    -0.9519324
H          -0.6270975    -0.8078340    -0.1877798
H           0.9620564    -1.1645244     0.5073255
H           0.5108190     0.0788155    -2.1252205
C           3.0301753     0.8054081     0.7934871
H           2.0558344     1.1235412     1.1364933
C           3.2857527     0.2401099    -0.4550762
N           4.6532226     0.0095490    -0.5372238
C           5.3818341    -0.5573993    -1.6669114
H           5.3233309     0.1009325    -2.5352427
H           4.9625517    -1.5255894    -1.9485737
H           6.4238357    -0.6872999    -1.3651521
C           5.2340077     0.4195967     0.6267156
H           6.3029247     0.3297110     0.7642689
C           4.2578517     0.9205323     1.4743265
H           4.4244141     1.3270996     2.4623824
O           2.7383633    -0.2271580    -2.7152995
20
273_C7H10N2O_9-0-1-2 (-60,) energy =    -457.4887576
C           2.3866872    -0.0312162    -1.6043886
N           1.0176378    -0.0596252    -1.3176698
C           0.4480442    -1.0253026    -0.3702460
H           0.3932127    -2.0403761    -0.7900212
H          -0.5617297    -0.7090888    -0.0901790
H           1.0586971    -1.0603230     0.5325780
H           0.5284893    -0.0849719    -2.2095710
C           3.0190704     0.7686481     0.7850646
H           2.0451733     1.0865774     1.1303466
C           3.2825315     0.2210728    -0.4690901
N           4.6504321    -0.0018675    -0.5468892
C           5.3885853    -0.5479406    -1.6809516
H           5.3477865     0.1325980    -2.5326687
H           4.9634667    -1.5046795    -1.9920126
H           6.4246044    -0.6977340    -1.3680740
C           5.2247480     0.3897620     0.6277859
H           6.2921326     0.2933718     0.7718416
C           4.2435504     0.8771571     1.4753386
H           4.4020184     1.2691712     2.4705708
O           2.7869011    -0.0864614    -2.7677867
20
273_C7H10N2O_9-0-1-2 (-45,) energy =    -457.4902862
C           2.3956906    -0.0374846    -1.6297051
N           1.0365956    -0.1667981    -1.3871468
C           0.4353461    -0.9602764    -0.3165381
H           0.1053336    -1.9409220    -0.6850820
H          -0.4307212    -0.4436404     0.1132677
H           1.1668339    -1.1221481     0.4751581
H           0.5518622    -0.2372647    -2.2762524
C           2.9884813     0.7371958     0.7884816
H           2.0094263     1.0377582     1.1349716
C           3.2680098     0.2044592    -0.4684829
N           4.6398795     0.0082322    -0.5398084
C           5.3973734    -0.5073200    -1.6757060
H           5.3755223     0.1980717    -2.5077031
H           4.9741120    -1.4520817    -2.0227248
H           6.4264546    -0.6713827    -1.3471909
C           5.2012402     0.3986456     0.6423377
H           6.2687589     0.3152233     0.7929391
C           4.2075958     0.8611418     1.4875770
H           4.3520832     1.2444886     2.4882973
O           2.8228460    -0.0247989    -2.7863974
20
273_C7H10N2O_9-0-1-2 (-30,) energy =    -457.4911847
C           2.4115136    -0.1239435    -1.6717600
N           1.0629069    -0.3333370    -1.4757774
C           0.4010480    -0.9010675    -0.3081551
H          -0.2799586    -1.6980601    -0.6253555
H          -0.1850994    -0.1533173     0.2424102
H           1.1375518    -1.3298403     0.3744925
H           0.5959534    -0.4636394    -2.3649580
C           2.9250447     0.6507450     0.7716863
H           1.9297159     0.8928043     1.1161749
C           3.2465092     0.1519441    -0.4896566
N           4.6284653     0.0290757    -0.5446359
C           5.4307238    -0.4327492    -1.6734494
H           5.3883722     0.2814371    -2.4969722
H           5.0614699    -1.3921037    -2.0403862
H           6.4606198    -0.5485770    -1.3270098
C           5.1533713     0.4307521     0.6501510
H           6.2216581     0.3987539     0.8142461
C           4.1270429     0.8288531     1.4883177
H           4.2380361     1.2029202     2.4967961
O           2.8719438    -0.1108221    -2.8172312
20
273_C7H10N2O_9-0-1-2 (-15,) energy =    -457.4914048
C           2.4372775    -0.1640812    -1.6686397
N           1.1086142    -0.4707639    -1.4986288
C           0.3826847    -0.8525137    -0.3000207
H          -0.3850480    -1.5847921    -0.5687194
H          -0.1163578    -0.0012600     0.1835010
H           1.0578112    -1.3138638     0.4245798
H           0.6455385    -0.5976469    -2.3892065
C           2.9249949     0.5954280     0.7934183
H           1.9267220     0.8054284     1.1484381
C           3.2562653     0.1215894    -0.4756741
N           4.6419602     0.0427167    -0.5351102
C           5.4582024    -0.3855402    -1.6675625
H           5.3960593     0.3344645    -2.4844992
H           5.1173398    -1.3516735    -2.0437578
H           6.4904703    -0.4745861    -1.3200806
C           5.1580471     0.4434245     0.6637365
H           6.2271734     0.4387545     0.8251601
C           4.1234088     0.8013069     1.5087759
H           4.2254351     1.1661409     2.5215646
O           2.9101400    -0.1187338    -2.8092597
20
273_C7H10N2O_9-0-1-2 (0,) energy =    -457.4910644
C           2.6655580    -1.3522363    -0.8875858
N           1.2977703    -1.3680235    -1.0113195
C           0.3086419    -0.3485309    -0.7181127
H           0.0171236    -0.3226019     0.3416945
H          -0.5879890    -0.5529715    -1.3106498
H           0.6853320     0.6379230    -0.9988647
H           0.9652719    -2.2812941    -1.2929124
C           2.9084271     0.8721799     0.4904643
H           1.9295457     0.9558455     0.9382641
C           3.3282555    -0.1349757    -0.3786141
N           4.6674499     0.1026438    -0.6628578
C           5.5469714    -0.6870012    -1.5202919
H           5.0867134    -0.8514431    -2.4961886
H           5.7498400    -1.6616833    -1.0750882
H           6.4775240    -0.1283398    -1.6477866
C           5.0654786     1.2307925    -0.0044224
H           6.0769839     1.5968984    -0.1135019
C           4.0039881     1.7293330     0.7275101
H           4.0205331     2.6091261     1.3559421
O           3.3139654    -2.3470696    -1.2294881
20
273_C7H10N2O_9-0-1-2 (15,) energy =    -457.4914048
C           2.6610061    -1.3721719    -0.8569049
N           1.2875324    -1.4088493    -0.8799031
C           0.3208529    -0.3320018    -0.7562188
H          -0.0520804    -0.2118621     0.2704052
H          -0.5354816    -0.5484320    -1.4025108
H           0.7613154     0.6151503    -1.0765017
H           0.9508059    -2.3088934    -1.1964517
C           2.9153800     0.8394120     0.5289669
H           1.9430293     0.9067488     0.9944646
C           3.3285311    -0.1559752    -0.3561145
N           4.6571766     0.1005206    -0.6704627
C           5.5268072    -0.6768593    -1.5488286
H           5.0484964    -0.8416094    -2.5158861
H           5.7473050    -1.6517343    -1.1121898
H           6.4497455    -0.1094452    -1.6919231
C           5.0563693     1.2276076    -0.0113225
H           6.0616275     1.6051652    -0.1378802
C           4.0052504     1.7079663     0.7483170
H           4.0260486     2.5828828     1.3834097
O           3.3024372    -2.3570133    -1.2381173
20
273_C7H10N2O_9-0-1-2 (30,) energy =    -457.4911847
C           2.6452593    -1.3913355    -0.8160479
N           1.2694466    -1.4340172    -0.7365971
C           0.3293880    -0.3227033    -0.8072256
H          -0.1601073    -0.1299568     0.1566543
H          -0.4497332    -0.5490544    -1.5429692
H           0.8425027     0.5891345    -1.1195664
H           0.9280308    -2.3326417    -1.0553069
C           2.9306539     0.8040885     0.5742576
H           1.9696495     0.8535055     1.0661654
C           3.3277937    -0.1793470    -0.3303209
N           4.6426982     0.0924106    -0.6840100
C           5.4910731    -0.6754392    -1.5905351
H           4.9854118    -0.8392774    -2.5438536
H           5.7304212    -1.6507789    -1.1645416
H           6.4061335    -0.1022854    -1.7587061
C           5.0512294     1.2172735    -0.0266124
H           6.0493973     1.6045315    -0.1778739
C           4.0178204     1.6820784     0.7673525
H           4.0499130     2.5523390     1.4083601
O           3.2685265    -2.3746618    -1.2269980
20
273_C7H10N2O_9-0-1-2 (45,) energy =    -457.4902862
C           2.6420936    -1.3784397    -0.7195220
N           1.2661924    -1.4011392    -0.5490048
C           0.3510420    -0.3074205    -0.8708605
H          -0.4394605    -0.2246756    -0.1158920
H          -0.1211029    -0.4587892    -1.8509448
H           0.8998486     0.6339097    -0.8985807
H           0.9204687    -2.3195557    -0.8086717
C           3.0078157     0.8098963     0.6503648
H           2.0747636     0.8488421     1.1951934
C           3.3565489    -0.1690857    -0.2780117
N           4.6484869     0.1049658    -0.7039350
C           5.4432410    -0.6644618    -1.6558812
H           4.8855576    -0.8248623    -2.5807638
H           5.7017814    -1.6410876    -1.2440158
H           6.3499140    -0.0953208    -1.8746719
C           5.0917029     1.2286428    -0.0668109
H           6.0801627     1.6169201    -0.2703395
C           4.1025566     1.6896013     0.7845221
H           4.1701392     2.5571054     1.4265045
O           3.2349040    -2.3791825    -1.1289720
20
273_C7H10N2O_9-0-1-2 (60,) energy =    -457.4887576
C           2.6308529    -1.3582263    -0.7044651
N           1.2602219    -1.3687068    -0.4241563
C           0.3575914    -0.3376927    -0.9503216
H          -0.5914978    -0.3718374    -0.4061378
H           0.1513417    -0.4701228    -2.0224760
H           0.7999931     0.6485000    -0.8056867
H           0.9203590    -2.3028391    -0.6416114
C           3.0446044     0.8046378     0.6739420
H           2.1204432     0.8388572     1.2338791
C           3.3742157    -0.1710827    -0.2649300
N           4.6575862     0.1032441    -0.7172710
C           5.4268450    -0.6603002    -1.6942072
H           4.8592599    -0.7840676    -2.6190654
H           5.6648057    -1.6527413    -1.3086493
H           6.3456845    -0.1082486    -1.9054868
C           5.1147147     1.2222928    -0.0833644
H           6.1012697     1.6078806    -0.3010440
C           4.1425672     1.6813357     0.7900528
H           4.2263452     2.5442839     1.4362542
O           3.1841187    -2.3526250    -1.1754067
20
273_C7H10N2O_9-0-1-2 (75,) energy =    -457.4859260
C           2.6005016    -1.3086329    -0.7095532
N           1.2442377    -1.3145245    -0.3100777
C           0.3223855    -0.3918005    -0.9947030
H          -0.6607154    -0.4506802    -0.5181354
H           0.2097956    -0.6190108    -2.0650738
H           0.6883049     0.6325474    -0.8957222
H           0.9255080    -2.2714273    -0.4592913
C           3.0619094     0.8049750     0.7092417
H           2.1377139     0.8369026     1.2687461
C           3.3792517    -0.1623664    -0.2433002
N           4.6612390     0.1098410    -0.7040510
C           5.4161401    -0.6459675    -1.6977192
H           4.8471975    -0.7377932    -2.6252944
H           5.6348165    -1.6517562    -1.3352387
H           6.3467326    -0.1084678    -1.8946758
C           5.1302119     1.2151967    -0.0571668
H           6.1206406     1.5932476    -0.2709713
C           4.1658273     1.6716961     0.8281757
H           4.2616410     2.5256752     1.4845550
O           3.0990138    -2.2755741    -1.2836880
20
273_C7H10N2O_9-0-1-2 (90,) energy =    -457.4820752
C           2.5682526    -1.2375453    -0.7182627
N           1.2259958    -1.2285311    -0.2246279
C           0.2752540    -0.4689768    -1.0615935
H          -0.7206524    -0.5338252    -0.6135778
H           0.2245393    -0.8378784    -2.0967957
H           0.5700214     0.5841572    -1.0827022
H           0.9392144    -2.2079162    -0.2631011
C           3.1050878     0.8150747     0.7458355
H           2.1820957     0.8572873     1.3058755
C           3.3927088    -0.1426884    -0.2271240
N           4.6780419     0.1089455    -0.6950091
C           5.4043848    -0.6433654    -1.7120809
H           4.8328952    -0.6854167    -2.6415410
H           5.5855252    -1.6675855    -1.3811715
H           6.3554028    -0.1364247    -1.8917658
C           5.1766170     1.1891675    -0.0308131
H           6.1751349     1.5470871    -0.2423801
C           4.2290574     1.6523701     0.8710802
H           4.3511727     2.4918580     1.5416127
O           2.9981663    -2.1689450    -1.3945088
20
273_C7H10N2O_9-0-1-2 (105,) energy =    -457.4811017
C           2.5215263    -1.1365077    -1.0210180
N           1.2419304    -1.3706842    -0.4672770
C           0.1162749    -0.7638040    -1.1918996
H           0.1333742     0.3364474    -1.1655450
H          -0.8233877    -1.1156060    -0.7562113
H           0.1541353    -1.0899600    -2.2336351
H           1.2215908    -1.0733693     0.5047919
C           3.0571389     0.7320152     0.7036814
H           2.0898586     0.8414510     1.1761950
C           3.3675418    -0.1613431    -0.3238069
N           4.7009682     0.0433898    -0.6571240
C           5.4685400    -0.6605243    -1.6804254
H           5.0694160    -0.4533421    -2.6744884
H           5.4258254    -1.7390308    -1.5181223
H           6.5050808    -0.3214382    -1.6144302
C           5.2029615     1.0350538     0.1318337
H           6.2317901     1.3504223     0.0240385
C           4.2109638     1.4880739     0.9868318
H           4.3152494     2.2752764     1.7205831
O           2.8400669    -1.6404435    -2.0937627
20
273_C7H10N2O_9-0-1-2 (120,) energy =    -457.4866348
C           2.5080571    -1.0132293    -1.0546215
N           1.2593848    -1.2563728    -0.4698525
C           0.0678517    -0.8992371    -1.2441529
H          -0.0863302     0.1885439    -1.3013368
H          -0.8152376    -1.3602067    -0.7920193
H           0.1830402    -1.2918748    -2.2560275
H           1.2063908    -0.9003604     0.4787934
C           3.1250681     0.7876493     0.7190655
H           2.1618512     0.9377176     1.1890689
C           3.3961149    -0.0968442    -0.3256668
N           4.7373326     0.0511109    -0.6525761
C           5.4722393    -0.6664363    -1.6901954
H           5.0879887    -0.4154295    -2.6798324
H           5.3740715    -1.7450877    -1.5537140
H           6.5246555    -0.3833545    -1.6124420
C           5.2853894     0.9998067     0.1597731
H           6.3288991     1.2659589     0.0614744
C           4.3139187     1.4809947     1.0218088
H           4.4529408     2.2463445     1.7727612
O           2.7885651    -1.4651458    -2.1630074
20
273_C7H10N2O_9-0-1-2 (135,) energy =    -457.4915836
C           2.4314753    -0.8884523    -1.0528688
N           1.2000554    -1.1125129    -0.4511184
C          -0.0131298    -1.0128381    -1.2581347
H          -0.3272773     0.0301131    -1.4093359
H          -0.8274802    -1.5628628    -0.7770914
H           0.1881719    -1.4645842    -2.2304774
H           1.1105528    -0.7027262     0.4706631
C           3.1369017     0.8434388     0.7608144
H           2.1821546     1.0390207     1.2317629
C           3.3625686    -0.0308799    -0.3018985
N           4.7096820     0.0501214    -0.6236431
C           5.4076000    -0.6826223    -1.6761455
H           5.0431283    -0.3859473    -2.6606241
H           5.2477570    -1.7569365    -1.5670321
H           6.4739821    -0.4616566    -1.5876253
C           5.3078711     0.9490295     0.2111006
H           6.3647770     1.1586950     0.1202288
C           4.3621741     1.4629064     1.0817711
H           4.5405073     2.2022266     1.8503131
O           2.6888247    -1.3249980    -2.1749679
20
273_C7H10N2O_9-0-1-2 (150,) energy =    -457.4951791
C           2.4097091    -0.7418515    -1.0608924
N           1.1816418    -0.9265147    -0.4594746
C          -0.0192349    -1.0868519    -1.2665464
H          -0.4812562    -0.1212208    -1.5168887
H          -0.7515039    -1.7029178    -0.7355479
H           0.2652139    -1.5906741    -2.1909776
H           1.0562073    -0.4806827     0.4391063
C           3.1921963     0.9154620     0.7942326
H           2.2478884     1.1462314     1.2705861
C           3.3771777     0.0581297    -0.2890521
N           4.7263962     0.0817707    -0.6085431
C           5.3921155    -0.6553747    -1.6788558
H           5.0547689    -0.3078540    -2.6565485
H           5.1711282    -1.7215385    -1.6060011
H           6.4682111    -0.4966933    -1.5749311
C           5.3671024     0.9282866     0.2502593
H           6.4334955     1.0861010     0.1664215
C           4.4462969     1.4652566     1.1326683
H           4.6589081     2.1740590     1.9210180
O           2.6591042    -1.1895528    -2.1821006
20
273_C7H10N2O_9-0-1-2 (165,) energy =    -457.4970689
C           2.3179201    -0.5869483    -1.0853646
N           1.0815456    -0.7081250    -0.5000013
C          -0.0898495    -1.1155853    -1.2528026
H          -0.7531001    -0.2664355    -1.4663811
H          -0.6583040    -1.8775228    -0.7077178
H           0.2590075    -1.5390360    -2.1954635
H           0.9428081    -0.2936312     0.4094952
C           3.1627580     0.9948104     0.8095566
H           2.2265928     1.2579412     1.2853804
C           3.3154636     0.1553968    -0.2919492
N           4.6657765     0.1257206    -0.6047728
C           5.3072632    -0.6234838    -1.6816863
H           4.9672559    -0.2686274    -2.6554054
H           5.0673192    -1.6857676    -1.6081330
H           6.3869790    -0.4846928    -1.5873339
C           5.3396777     0.9196835     0.2792617
H           6.4129060     1.0283503     0.2059503
C           4.4388154     1.4773795     1.1689198
H           4.6782954     2.1570714     1.9750321
O           2.5659269    -1.0581170    -2.1982362
20
273_C7H10N2O_9-0-1-2 (180,) energy =    -457.4976541
C           2.4774845    -0.7259609    -0.9775790
N           1.1677873    -0.4914778    -0.6428125
C           0.0710726    -1.1860122    -1.2886049
H          -0.4508980    -0.5464029    -2.0130253
H          -0.6529418    -1.5393032    -0.5457608
H           0.4908662    -2.0408348    -1.8201625
H           0.9587570     0.3062694    -0.0616321
C           3.3224960     0.8267197     0.9399419
H           2.4140778     0.9402423     1.5175861
C           3.4631559     0.0685924    -0.2200959
N           4.7917587     0.1461096    -0.6073307
C           5.4128436    -0.4865445    -1.7675658
H           4.8912743    -0.2067653    -2.6845949
H           5.3790002    -1.5733590    -1.6800921
H           6.4500724    -0.1465259    -1.8175791
C           5.4632562     0.9366244     0.2823232
H           6.5196153     1.1270935     0.1527247
C           4.5840611     1.3737267     1.2568758
H           4.8304104     2.0059726     2.0987783
O           2.7996932    -1.5530100    -1.8346989
