15
068_C6H4N5-_4-6-12-11 (-165,) energy =    -504.8058007
C           5.4976671     1.5172900     1.4508865
H           6.1738367     2.3026890     1.7800545
C           5.8433576     0.1631446     1.5311328
H           6.8112332    -0.1396535     1.9279158
C           4.9396590    -0.7905025     1.0902172
H           5.1544384    -1.8527906     1.1270185
C           3.6848801    -0.3814721     0.5786308
N           3.3519158     0.9272840     0.5011322
C           4.2434170     1.8266321     0.9262165
H           3.9327071     2.8707186     0.8442973
N           1.1545787    -2.3908848    -0.8800068
N           1.6541237    -1.1730364    -0.6565298
C           2.7453531    -1.3940066     0.1050853
N           2.9316911    -2.7118889     0.3448199
N           1.9169840    -3.3131986    -0.2765369
15
068_C6H4N5-_4-6-12-11 (-150,) energy =    -504.8043676
C           5.5011131     1.5126362     1.4475273
H           6.1825547     2.2987468     1.7640472
C           5.8572382     0.1602077     1.4965324
H           6.8411173    -0.1404056     1.8534037
C           4.9449370    -0.7925379     1.0693557
H           5.1687927    -1.8535524     1.0819616
C           3.6702363    -0.3847099     0.6112154
N           3.3277273     0.9228128     0.5618870
C           4.2286155     1.8216717     0.9685670
H           3.9101556     2.8649236     0.9110000
N           1.2573465    -2.4246931    -0.9924247
N           1.7813053    -1.2094175    -0.8075265
C           2.7276135    -1.3954940     0.1353781
N           2.8117152    -2.6892114     0.5171666
N           1.8674856    -3.3090753    -0.1943917
15
068_C6H4N5-_4-6-12-11 (-135,) energy =    -504.8020289
C           5.4997650     1.5155144     1.4430105
H           6.1888739     2.2980400     1.7517285
C           5.8644003     0.1652259     1.4564542
H           6.8609744    -0.1375442     1.7739090
C           4.9417115    -0.7834090     1.0399236
H           5.1726040    -1.8429813     1.0254239
C           3.6515608    -0.3738024     0.6340872
N           3.3025285     0.9323799     0.6161879
C           4.2119192     1.8290618     1.0099041
H           3.8883859     2.8718190     0.9807112
N           1.3686305    -2.4645716    -1.0875165
N           1.9277845    -1.2563719    -0.9448838
C           2.7031618    -1.3807777     0.1509733
N           2.6610911    -2.6286690     0.6642935
N           1.7964953    -3.2806650    -0.1222685
15
068_C6H4N5-_4-6-12-11 (-120,) energy =    -504.7990044
C           5.4895665     1.5167159     1.4486063
H           6.1793603     2.2989621     1.7566550
C           5.8685526     0.1715219     1.4185922
H           6.8769576    -0.1280697     1.6992284
C           4.9417036    -0.7760732     1.0056299
H           5.1853890    -1.8320784     0.9593703
C           3.6377258    -0.3712139     0.6480819
N           3.2764255     0.9307535     0.6685628
C           4.1872633     1.8278854     1.0595196
H           3.8533618     2.8675898     1.0638543
N           1.4870527    -2.5380085    -1.1503266
N           2.1016908    -1.3477177    -1.0585224
C           2.6863996    -1.3782536     0.1545731
N           2.4877244    -2.5499536     0.7907634
N           1.7059840    -3.2485190    -0.0485197
15
068_C6H4N5-_4-6-12-11 (-105,) energy =    -504.7960093
C           5.4890554     1.5175766     1.4589169
H           6.1735370     2.2997978     1.7787152
C           5.8881798     0.1813716     1.3770301
H           6.9060491    -0.1115732     1.6286948
C           4.9645337    -0.7665589     0.9543466
H           5.2265668    -1.8161722     0.8707369
C           3.6500939    -0.3714186     0.6338003
N           3.2702866     0.9224401     0.7048930
C           4.1742872     1.8217517     1.1084150
H           3.8247641     2.8551321     1.1545372
N           1.5887794    -2.6211472    -1.1766113
N           2.3136818    -1.4858659    -1.1498273
C           2.6944560    -1.3821415     0.1360360
N           2.2711334    -2.4137176     0.8889222
N           1.5555594    -3.1659530     0.0294796
15
068_C6H4N5-_4-6-12-11 (-90,) energy =    -504.7944658
C           5.4607617     1.5182214     1.4743952
H           6.1220165     2.3083485     1.8224627
C           5.9038759     0.2024048     1.3280162
H           6.9325551    -0.0679224     1.5601051
C           5.0045573    -0.7574410     0.8777323
H           5.3025184    -1.7929528     0.7478318
C           3.6772371    -0.3924222     0.5817189
N           3.2528143     0.8810607     0.7229499
C           4.1307808     1.7919388     1.1566886
H           3.7461696     2.8087530     1.2572345
N           1.6640882    -2.7330280    -1.1777844
N           2.5495489    -1.7128944    -1.2015654
C           2.7273568    -1.4214913     0.0975688
N           2.0155711    -2.2127414     0.9173197
N           1.3487229    -3.0267914     0.0700063
15
068_C6H4N5-_4-6-12-11 (-75,) energy =    -504.7954309
C           5.4487173     1.5218650     1.4784628
H           6.0956931     2.3182777     1.8387713
C           5.9244421     0.2246179     1.2767622
H           6.9640250    -0.0252894     1.4817376
C           5.0404831    -0.7457001     0.8196109
H           5.3620701    -1.7685714     0.6514010
C           3.6985692    -0.4066070     0.5567064
N           3.2400390     0.8465863     0.7618874
C           4.1029495     1.7664527     1.2060595
H           3.6916238     2.7667418     1.3553981
N           1.7432686    -2.8379645    -1.1352937
N           2.7590876    -1.9503490    -1.1443859
C           2.7547198    -1.4511840     0.1041036
N           1.7886777    -1.9772476     0.8758754
N           1.1761176    -2.8587010     0.0594010
15
068_C6H4N5-_4-6-12-11 (-60,) energy =    -504.7981739
C           5.4442083     1.5210926     1.4774384
H           6.0914988     2.3175172     1.8370459
C           5.9308609     0.2354708     1.2262088
H           6.9795129    -0.0049221     1.3932681
C           5.0468658    -0.7366838     0.7766857
H           5.3738630    -1.7510352     0.5723803
C           3.6917059    -0.4086746     0.5611054
N           3.2214566     0.8314846     0.8177117
C           4.0863101     1.7510505     1.2579205
H           3.6657915     2.7406365     1.4483639
N           1.8384880    -2.9435607    -1.0741069
N           2.9161663    -2.1419093    -1.0211914
C           2.7535366    -1.4568347     0.1275604
N           1.6199009    -1.7877969     0.7715705
N           1.0769725    -2.7411188    -0.0049999
15
068_C6H4N5-_4-6-12-11 (-45,) energy =    -504.8013547
C           5.4472770     1.5193551     1.4810532
H           6.1000638     2.3123322     1.8382371
C           5.9341730     0.2422415     1.1845925
H           6.9893772     0.0063354     1.3128431
C           5.0453572    -0.7270387     0.7423456
H           5.3692640    -1.7341632     0.5019955
C           3.6800672    -0.4033157     0.5762544
N           3.2094375     0.8281145     0.8744753
C           4.0815884     1.7429277     1.3092203
H           3.6602657     2.7249552     1.5347344
N           1.9342490    -3.0457396    -0.9897734
N           3.0375633    -2.2964614    -0.8631008
C           2.7457966    -1.4471609     0.1446905
N           1.5030168    -1.6349869     0.6278171
N           1.0261644    -2.6590021    -0.0937098
15
068_C6H4N5-_4-6-12-11 (-30,) energy =    -504.8040253
C           5.4448449     1.5202759     1.4847297
H           6.1024047     2.3100624     1.8401219
C           5.9307787     0.2525326     1.1455185
H           6.9912652     0.0223874     1.2357564
C           5.0384859    -0.7139066     0.7072309
H           5.3593333    -1.7128281     0.4322023
C           3.6647953    -0.3972076     0.5908371
N           3.1954337     0.8258460     0.9259335
C           4.0734350     1.7368175     1.3556703
H           3.6518270     2.7109643     1.6133080
N           1.9947391    -3.1376175    -0.8785045
N           3.1095125    -2.4288765    -0.6803661
C           2.7315812    -1.4333824     0.1519871
N           1.4210494    -1.5018050     0.4591161
N           0.9886311    -2.5882629    -0.1896644
15
068_C6H4N5-_4-6-12-11 (-15,) energy =    -504.8057119
C           5.4962433     1.5253615     1.3874420
H           6.1721370     2.3124044     1.7132410
C           5.4881927     0.2617778     1.9899598
H           6.1655468     0.0352769     2.8120148
C           4.5989128    -0.6974863     1.5322468
H           4.5488871    -1.6923761     1.9608839
C           3.7271023    -0.3886123     0.4607670
N           3.7332497     0.8336145    -0.1185631
C           4.5953395     1.7423723     0.3456612
H           4.5661799     2.7144214    -0.1519501
N           1.9012892    -3.3150546    -0.2833096
N           2.9124991    -2.7061858     0.3362527
C           2.7866889    -1.4036179    -0.0054604
N           1.7319717    -1.1991172    -0.8208201
N           1.1914866    -2.4105625    -0.9722109
15
068_C6H4N5-_4-6-12-11 (0,) energy =    -504.8062848
C           5.4931850     1.5242438     1.3919521
H           6.1692179     2.3106712     1.7188355
C           5.5140299     0.2471524     1.9655020
H           6.2167791     0.0088089     2.7625265
C           4.6274855    -0.7135216     1.5062162
H           4.5977761    -1.7187448     1.9118930
C           3.7200837    -0.3877079     0.4696593
N           3.7003383     0.8465353    -0.0836964
C           4.5654591     1.7540866     0.3767793
H           4.5138998     2.7362593    -0.0988210
N           1.8079036    -3.2847864    -0.1664281
N           2.7672704    -2.6557541     0.5110413
C           2.7899447    -1.4064684    -0.0073363
N           1.8716174    -1.2539456    -0.9835636
N           1.2716104    -2.4434654    -1.0625757
15
068_C6H4N5-_4-6-12-11 (15,) energy =    -504.8057119
C           5.4892360     1.5283919     1.3944967
H           6.1640890     2.3158642     1.7214096
C           5.5392236     0.2393853     1.9382817
H           6.2667441    -0.0091471     2.7095359
C           4.6549453    -0.7220588     1.4754915
H           4.6482245    -1.7359221     1.8602971
C           3.7131484    -0.3825004     0.4748698
N           3.6678064     0.8622842    -0.0523431
C           4.5354045     1.7686290     0.4063022
H           4.4623527     2.7599184    -0.0468614
N           1.6980205    -3.2259638    -0.0774066
N           2.6035364    -2.5707498     0.6491264
C           2.7940393    -1.4068413    -0.0129182
N           2.0269863    -1.3284380    -1.1195101
N           1.3569074    -2.4830907    -1.1396248
15
068_C6H4N5-_4-6-12-11 (30,) energy =    -504.8040253
C           5.4825221     1.5230315     1.4044002
H           6.1546345     2.3139087     1.7287915
C           5.5662231     0.2253756     1.9215578
H           6.3192870    -0.0276232     2.6662911
C           4.6851614    -0.7402394     1.4593834
H           4.7055200    -1.7615077     1.8241086
C           3.7095686    -0.3939464     0.4954481
N           3.6344922     0.8584289    -0.0089026
C           4.5013396     1.7685819     0.4445578
H           4.4039042     2.7668359     0.0120214
N           1.5865588    -3.1680669    -0.0095063
N           2.4320379    -2.4793419     0.7619309
C           2.8038054    -1.4280905    -0.0018175
N           2.2045378    -1.4436262    -1.2089382
N           1.4586568    -2.5534046    -1.1903432
15
068_C6H4N5-_4-6-12-11 (45,) energy =    -504.8013547
C           5.4812749     1.5218363     1.4085589
H           6.1516301     2.3161276     1.7283224
C           5.5987109     0.2172476     1.8986939
H           6.3777807    -0.0391860     2.6148278
C           4.7169025    -0.7515217     1.4415511
H           4.7660980    -1.7790755     1.7860741
C           3.7082779    -0.4012856     0.5161268
N           3.6038149     0.8573748     0.0347650
C           4.4706723     1.7718047     0.4807580
H           4.3485094     2.7760793     0.0693506
N           1.4598939    -3.0811103     0.0201031
N           2.2420168    -2.3557083     0.8305608
C           2.8076464    -1.4426404     0.0129717
N           2.3901869    -1.5690958    -1.2609702
N           1.5583088    -2.6195224    -1.2266387
15
068_C6H4N5-_4-6-12-11 (60,) energy =    -504.7981739
C           5.4764888     1.5234456     1.4086020
H           6.1451033     2.3214640     1.7227929
C           5.6287734     0.2129585     1.8692574
H           6.4336163    -0.0455572     2.5553811
C           4.7445274    -0.7592249     1.4202907
H           4.8236044    -1.7920133     1.7438207
C           3.7042095    -0.4078129     0.5344175
N           3.5677597     0.8571693     0.0803502
C           4.4340286     1.7768505     0.5175246
H           4.2852122     2.7866414     0.1295026
N           1.3311310    -2.9813864     0.0060248
N           2.0387605    -2.2072465     0.8467408
C           2.7996806    -1.4534819     0.0292780
N           2.5794909    -1.7165164    -1.2713927
N           1.6611798    -2.6977647    -1.2487679
15
068_C6H4N5-_4-6-12-11 (75,) energy =    -504.7954309
C           5.4801359     1.5241550     1.4114600
H           6.1490884     2.3222103     1.7249617
C           5.6638329     0.2051917     1.8315057
H           6.4922898    -0.0604071     2.4859654
C           4.7736961    -0.7655966     1.3875302
H           4.8772981    -1.8046784     1.6834256
C           3.7051570    -0.4061853     0.5426139
N           3.5363048     0.8685496     0.1310528
C           4.4043709     1.7888101     0.5642265
H           4.2295358     2.8066851     0.2100623
N           1.2204189    -2.8769449    -0.0221784
N           1.8385438    -2.0188960     0.8153812
C           2.7822497    -1.4492160     0.0454497
N           2.7726017    -1.9041582    -1.2188867
N           1.7771950    -2.8140944    -1.2202751
15
068_C6H4N5-_4-6-12-11 (90,) energy =    -504.7944658
C           5.4848046     1.5199565     1.4230973
H           6.1536382     2.3106556     1.7550103
C           5.6907001     0.1865010     1.7817793
H           6.5335866    -0.0976325     2.4094203
C           4.7957477    -0.7730315     1.3222231
H           4.9140501    -1.8219028     1.5748360
C           3.7103794    -0.3900336     0.5110955
N           3.5136042     0.9003776     0.1676430
C           4.3835099     1.8106672     0.6185193
H           4.1877842     2.8415262     0.3169109
N           1.1343426    -2.7725255    -0.0499964
N           1.6543373    -1.7795659     0.7042706
C           2.7589475    -1.4192293     0.0302721
N           2.9557438    -2.1429074    -1.0842987
N           1.9001293    -2.9858778    -1.1039330
15
068_C6H4N5-_4-6-12-11 (105,) energy =    -504.7960093
C           5.4910686     1.5176905     1.4546980
H           6.1532093     2.2982596     1.8220369
C           5.7189890     0.1687500     1.7372938
H           6.5706261    -0.1365501     2.3428641
C           4.8293995    -0.7766521     1.2421142
H           4.9607175    -1.8359888     1.4367955
C           3.7325919    -0.3653283     0.4582370
N           3.5098499     0.9402144     0.1949442
C           4.3734646     1.8365236     0.6844419
H           4.1578654     2.8798657     0.4454382
N           1.0842146    -2.6587237    -0.1022908
N           1.5374123    -1.5436454     0.5029160
C           2.7665256    -1.3768307    -0.0173177
N           3.1026629    -2.3519265    -0.8812575
N           2.0049330    -3.1325866    -0.9270974
15
068_C6H4N5-_4-6-12-11 (120,) energy =    -504.7990044
C           5.4834937     1.5162264     1.4616046
H           6.1400033     2.2959972     1.8405128
C           5.7386754     0.1618236     1.6951728
H           6.6067184    -0.1482085     2.2746330
C           4.8545011    -0.7825988     1.1913619
H           5.0029855    -1.8456853     1.3477887
C           3.7356669    -0.3639706     0.4396502
N           3.4856161     0.9462717     0.2232793
C           4.3439977     1.8395040     0.7259082
H           4.1060828     2.8863481     0.5258870
N           1.0371891    -2.5715253    -0.1925064
N           1.4684600    -1.3948736     0.2896726
C           2.7755234    -1.3716690    -0.0350815
N           3.1692189    -2.4993039    -0.6600082
N           2.0432791    -3.2234771    -0.7665061
15
068_C6H4N5-_4-6-12-11 (135,) energy =    -504.8020289
C           5.4857177     1.5144291     1.4729496
H           6.1423056     2.2945126     1.8509507
C           5.7652990     0.1578159     1.6675133
H           6.6541692    -0.1529826     2.2142512
C           4.8810781    -0.7879589     1.1690981
H           5.0459084    -1.8524454     1.2952545
C           3.7338299    -0.3677244     0.4590275
N           3.4619758     0.9442006     0.2767925
C           4.3215544     1.8371866     0.7765331
H           4.0643905     2.8848820     0.6060312
N           1.0078761    -2.4914408    -0.3193300
N           1.4423020    -1.2925125     0.0887936
C           2.7835543    -1.3748419    -0.0200679
N           3.1848448    -2.5897938    -0.4506179
N           2.0452694    -3.2622483    -0.6517294
15
068_C6H4N5-_4-6-12-11 (150,) energy =    -504.8043679
C           5.4900053     1.5117789     1.4708871
H           6.1476669     2.2960111     1.8382715
C           5.7916425     0.1553145     1.6361971
H           6.7026376    -0.1507925     2.1481863
C           4.9060220    -0.7954818     1.1523232
H           5.0872085    -1.8596752     1.2557134
C           3.7285021    -0.3804108     0.4873250
N           3.4365082     0.9308518     0.3301782
C           4.3005167     1.8270420     0.8152105
H           4.0247400     2.8734664     0.6667046
N           1.0089017    -2.4430437    -0.4630609
N           1.4531789    -1.2336924    -0.1085166
C           2.7876511    -1.3911090     0.0078558
N           3.1695642    -2.6627369    -0.2444884
N           2.0358866    -3.2965768    -0.5528836
15
068_C6H4N5-_4-6-12-11 (165,) energy =    -504.8058007
C           5.4904073     1.5167298     1.4664143
H           6.1543566     2.3012397     1.8215558
C           5.8093156     0.1605923     1.6036569
H           6.7408557    -0.1449011     2.0778012
C           4.9185873    -0.7920863     1.1351156
H           5.1126438    -1.8559134     1.2160761
C           3.7126323    -0.3794340     0.5195745
N           3.4051870     0.9312196     0.3877610
C           4.2774117     1.8291218     0.8539079
H           3.9878865     2.8747827     0.7268843
N           1.0286691    -2.4003868    -0.6118556
N           1.4868620    -1.1855881    -0.3004441
C           2.7755190    -1.3917920     0.0408892
N           3.1143309    -2.6983226    -0.0439090
N           2.0045309    -3.3067786    -0.4627463
15
068_C6H4N5-_4-6-12-11 (180,) energy =    -504.8062852
C           5.4965302     1.5134623     1.4581017
H           6.1637756     2.3013815     1.7992881
C           5.8323092     0.1587493     1.5677825
H           6.7838160    -0.1419668     2.0037941
C           4.9379453    -0.7974465     1.1140642
H           5.1454998    -1.8600976     1.1739635
C           3.7049353    -0.3904594     0.5497811
N           3.3810433     0.9186654     0.4444567
C           4.2611096     1.8197016     0.8891590
H           3.9572263     2.8637212     0.7838987
N           1.0864490    -2.3983731    -0.7476577
N           1.5624565    -1.1799377    -0.4829015
C           2.7694744    -1.4057374     0.0755047
N           3.0432945    -2.7277199     0.1598086
N           1.9740106    -3.3269542    -0.3624512
