28
429_C12H12N2O2_1-0-23-24 (-165,) energy =    -724.4329880
C           2.7769969    -1.8430330    -0.5951487
C           1.9696875    -2.0407288     0.5411912
H           2.1386754    -1.4245513     1.4129121
C           0.8789038    -2.9032390     0.5644435
H           0.2733106    -2.9866820     1.4614024
C           0.5795415    -3.6440747    -0.5742500
H          -0.2647026    -4.3281696    -0.5849281
C           1.3659176    -3.5097473    -1.7140583
H           1.1253316    -4.1002256    -2.5890121
C           2.4677818    -2.6393253    -1.7460611
O           3.2642487    -2.5533571    -2.8344024
C           2.9988495    -3.3718646    -3.9631222
H           3.7835857    -3.1327242    -4.6825505
H           2.0207937    -3.1460477    -4.4069983
H           3.0470288    -4.4397687    -3.7129796
C           6.0453179     0.8662159    -0.5343856
H           6.8360470     1.6071613    -0.5416836
C           5.5734305     0.4087436     0.7469777
N           4.5722571    -0.6189647     0.6726962
C           4.4436470    -1.3647518     1.9365170
H           5.4281787    -1.3714606     2.4049280
H           4.1119299    -2.3812671     1.7354224
H           3.7582516    -0.8748656     2.6343828
C           3.9802443    -0.9623442    -0.5411091
N           4.5093539    -0.5814793    -1.6806084
C           5.5440019     0.3010166    -1.6658178
H           5.9433137     0.5587920    -2.6453103
O           5.9978398     0.7629079     1.8424385
28
429_C12H12N2O2_1-0-23-24 (-150,) energy =    -724.4399338
C           2.7509116    -1.7834468    -0.5997221
C           1.9039610    -1.9009494     0.5147266
H           2.0717652    -1.2508571     1.3654503
C           0.7983302    -2.7465096     0.5329502
H           0.1526219    -2.7792679     1.4048671
C           0.5364720    -3.5386319    -0.5812776
H          -0.3200438    -4.2072948    -0.5934493
C           1.3765113    -3.4858170    -1.6913933
H           1.1675037    -4.1235855    -2.5413537
C           2.4925617    -2.6355214    -1.7137449
O           3.3688136    -2.6193117    -2.7447712
C           3.1530211    -3.4792660    -3.8527230
H           3.9852321    -3.2908655    -4.5327453
H           2.2093201    -3.2502243    -4.3640375
H           3.1580621    -4.5361040    -3.5549146
C           5.9849149     0.9524964    -0.5396329
H           6.7786482     1.6903040    -0.5374912
C           5.6486529     0.3361424     0.7179948
N           4.6223471    -0.6625235     0.6194877
C           4.5239316    -1.5062891     1.8210674
H           5.5328655    -1.6237965     2.2175827
H           4.0991468    -2.4732512     1.5613108
H           3.9214069    -1.0290214     2.5993613
C           3.9325107    -0.8763602    -0.5644753
N           4.3177145    -0.3378041    -1.6976309
C           5.3459298     0.5541650    -1.6737077
H           5.6255785     0.9605545    -2.6440950
O           6.1841563     0.5514134     1.8006370
28
429_C12H12N2O2_1-0-23-24 (-135,) energy =    -724.4447335
C           2.7335525    -1.7778368    -0.5784085
C           1.8331917    -1.7991208     0.4954354
H           1.9933808    -1.1160341     1.3237796
C           0.7078444    -2.6208602     0.4992178
H           0.0156922    -2.5948495     1.3350312
C           0.4856504    -3.4666662    -0.5845309
H          -0.3855201    -4.1159424    -0.6040628
C           1.3817611    -3.4980664    -1.6529070
H           1.2005043    -4.1781835    -2.4764199
C           2.5147047    -2.6723002    -1.6584977
O           3.4556907    -2.7095479    -2.6331890
C           3.2633929    -3.5725986    -3.7431717
H           4.1260155    -3.4120322    -4.3916595
H           2.3460457    -3.3242821    -4.2918841
H           3.2299709    -4.6266115    -3.4369839
C           5.9366484     0.9827845    -0.5355321
H           6.7293509     1.7217773    -0.5328606
C           5.7160285     0.2428567     0.6809805
N           4.6749587    -0.7382317     0.5748759
C           4.5962247    -1.6489096     1.7260558
H           5.6145024    -1.8281420     2.0721007
H           4.1195631    -2.5801794     1.4285318
H           4.0419129    -1.1947417     2.5527347
C           3.9031653    -0.8539591    -0.5640306
N           4.1576260    -0.1848104    -1.6630309
C           5.1808593     0.7152895    -1.6365318
H           5.3576477     1.2395296    -2.5739038
O           6.3397728     0.3562292     1.7310829
28
429_C12H12N2O2_1-0-23-24 (-120,) energy =    -724.4471548
C           2.7030587    -1.7474717    -0.5639634
C           1.7472235    -1.6855033     0.4553324
H           1.8813618    -0.9621800     1.2551554
C           0.6156858    -2.5009003     0.4435783
H          -0.1217167    -2.4232154     1.2364322
C           0.4446952    -3.4065366    -0.6007859
H          -0.4306858    -4.0498045    -0.6290330
C           1.3942712    -3.5063155    -1.6191267
H           1.2480575    -4.2275971    -2.4144146
C           2.5304245    -2.6869221    -1.6068050
O           3.5240658    -2.7562563    -2.5298871
C           3.3809521    -3.6508875    -3.6226009
H           4.2734006    -3.5128356    -4.2349121
H           2.4907165    -3.4160413    -4.2197017
H           3.3287348    -4.6950132    -3.2868197
C           5.8884200     1.0270347    -0.5248689
H           6.6814568     1.7656941    -0.5180200
C           5.7813904     0.1600663     0.6219371
N           4.7237553    -0.8007979     0.5105098
C           4.6807658    -1.7894082     1.5960680
H           5.7091178    -2.0296921     1.8669676
H           4.1489680    -2.6781260     1.2637042
H           4.1903007    -1.3737838     2.4816096
C           3.8654661    -0.8110478    -0.5650846
N           3.9973573    -0.0141446    -1.5967317
C           5.0207175     0.8886632    -1.5656312
H           5.1006498     1.5248263    -2.4450693
O           6.4968168     0.1662011     1.6180784
28
429_C12H12N2O2_1-0-23-24 (-105,) energy =    -724.4479129
C           2.6375162    -1.6871113    -0.5545784
C           1.6242696    -1.5522480     0.3966730
H           1.7123174    -0.7752562     1.1516611
C           0.5000297    -2.3796682     0.3753374
H          -0.2839139    -2.2544689     1.1157808
C           0.3958797    -3.3583145    -0.6102121
H          -0.4731128    -4.0099518    -0.6429954
C           1.4023329    -3.5203771    -1.5651657
H           1.3046510    -4.2932068    -2.3186255
C           2.5287737    -2.6895915    -1.5410448
O           3.5762832    -2.7907141    -2.4036800
C           3.5023236    -3.7415959    -3.4555019
H           4.4227322    -3.6204748    -4.0287895
H           2.6400354    -3.5518524    -4.1070978
H           3.4474905    -4.7678392    -3.0690604
C           5.8456850     1.0602184    -0.5250421
H           6.6507447     1.7858302    -0.5185622
C           5.8444853     0.0647472     0.5186934
N           4.7565483    -0.8606044     0.4135846
C           4.7644448    -1.9404449     1.4082277
H           5.7989958    -2.2487506     1.5605500
H           4.1595551    -2.7716852     1.0528168
H           4.3747638    -1.5826872     2.3663977
C           3.7989058    -0.7443941    -0.5636078
N           3.8240792     0.1736165    -1.4963427
C           4.8624368     1.0622032    -1.4673708
H           4.8551603     1.8051026    -2.2625798
O           6.6590438    -0.0513666     1.4279381
28
429_C12H12N2O2_1-0-23-24 (-90,) energy =    -724.4486154
C           2.6370647    -1.6260338    -0.4595210
C           1.5680000    -1.4502373     0.4190952
H           1.6038351    -0.6317963     1.1331833
C           0.4542064    -2.2921984     0.3729570
H          -0.3744559    -2.1384720     1.0572609
C           0.4179016    -3.3218102    -0.5638956
H          -0.4435922    -3.9820371    -0.6161130
C           1.4832625    -3.5242550    -1.4453296
H           1.4379279    -4.3346390    -2.1636312
C           2.5996451    -2.6832993    -1.3895176
O           3.7081947    -2.8157034    -2.1731661
C           3.7114132    -3.8155000    -3.1824285
H           4.6694538    -3.7161161    -3.6949816
H           2.8960714    -3.6609080    -3.9002355
H           3.6317919    -4.8226131    -2.7528646
C           5.9465527     0.9892119    -0.3436065
H           6.7893236     1.6703149    -0.3208399
C           6.0265032    -0.1844781     0.4935011
N           4.8658834    -1.0209520     0.3932127
C           4.8781879    -2.2670196     1.1714506
H           5.8110581    -2.2733214     1.7328299
H           4.8396408    -3.1277719     0.4992512
H           4.0270559    -2.3028360     1.8544768
C           3.8126207    -0.6991979    -0.4243156
N           3.7712212     0.3670433    -1.1805785
C           4.8535991     1.2033321    -1.1256759
H           4.7901412     2.0814002    -1.7653457
O           6.9588300    -0.4894876     1.2288279
28
429_C12H12N2O2_1-0-23-24 (-75,) energy =    -724.4499297
C           2.6172860    -1.6034645    -0.4511087
C           1.5006173    -1.3558683     0.3484834
H           1.5112059    -0.4915718     1.0063496
C           0.3805217    -2.1884945     0.2976112
H          -0.4809227    -1.9822599     0.9252630
C           0.3799361    -3.2765582    -0.5714470
H          -0.4858506    -3.9308216    -0.6275740
C           1.4860564    -3.5430984    -1.3828181
H           1.4646389    -4.3930304    -2.0549887
C           2.6093274    -2.7123381    -1.3208258
O           3.7451668    -2.8945992    -2.0560731
C           3.7699570    -3.9364558    -3.0224554
H           4.7440345    -3.8661613    -3.5088696
H           2.9780158    -3.8051016    -3.7702700
H           3.6679593    -4.9238402    -2.5539036
C           5.9318673     1.0058359    -0.3287140
H           6.7773229     1.6837582    -0.3117528
C           6.0959387    -0.2683483     0.3299772
N           4.9211744    -1.0870623     0.2649408
C           5.0011493    -2.3987524     0.9201330
H           5.8785144    -2.3779089     1.5642927
H           5.1170935    -3.1858487     0.1703960
H           4.0977216    -2.5809122     1.5037823
C           3.7923857    -0.6788544    -0.3983775
N           3.6732624     0.4813066    -0.9931301
C           4.7568748     1.3157102    -0.9413551
H           4.6246136     2.2734156    -1.4409092
O           7.1030199    -0.6642926     0.9064048
28
429_C12H12N2O2_1-0-23-24 (-60,) energy =    -724.4508442
C           2.4956047    -1.5333859    -0.4856421
C           1.3356560    -1.2366401     0.2343459
H           1.3240646    -0.3401491     0.8464690
C           0.2132482    -2.0628530     0.1683925
H          -0.6763880    -1.8217178     0.7418984
C           0.2467110    -3.1922745    -0.6460182
H          -0.6200600    -3.8442875    -0.7122559
C           1.3861254    -3.4991771    -1.3937612
H           1.3868459    -4.3740923    -2.0332052
C           2.5118099    -2.6719559    -1.3196586
O           3.6622482    -2.8785061    -2.0237021
C           3.7180538    -3.9683569    -2.9342051
H           4.7048799    -3.9173443    -3.3967519
H           2.9468217    -3.8801299    -3.7094707
H           3.6071269    -4.9308495    -2.4183653
C           5.7403146     1.1691670    -0.3736948
H           6.5643480     1.8731121    -0.3692944
C           6.0101496    -0.1690528     0.0926542
N           4.8568274    -1.0169387     0.0765883
C           5.0674005    -2.3579139     0.6316421
H           5.7450892    -2.2658482     1.4803274
H           5.5298430    -3.0085851    -0.1142973
H           4.1119807    -2.7760477     0.9443809
C           3.6510783    -0.5892753    -0.4193465
N           3.4344059     0.6362816    -0.8333457
C           4.4886439     1.5054893    -0.7904263
H           4.2671748     2.5145576    -1.1325467
O           7.0834933    -0.6039485     0.4958266
28
429_C12H12N2O2_1-0-23-24 (-45,) energy =    -724.4504075
C           2.5121519    -1.5552889    -0.4626896
C           1.3098571    -1.1814710     0.1495223
H           1.2915986    -0.2530434     0.7103784
C           0.1683380    -1.9747517     0.0548358
H          -0.7464795    -1.6748750     0.5565045
C           0.2141579    -3.1475396    -0.6963197
H          -0.6663918    -3.7785166    -0.7821648
C           1.3830620    -3.5184136    -1.3628362
H           1.3908952    -4.4170692    -1.9681583
C           2.5280821    -2.7190134    -1.2658269
O           3.6874659    -2.9741887    -1.9367462
C           3.7403836    -4.0917764    -2.8133147
H           4.7380431    -4.0737763    -3.2546170
H           2.9885112    -4.0110700    -3.6080326
H           3.5986501    -5.0361987    -2.2723838
C           5.7198426     1.1938231    -0.3094865
H           6.5293360     1.9142425    -0.2976630
C           6.0464983    -0.1764011    -0.0020863
N           4.9106281    -1.0489102    -0.0111679
C           5.1860521    -2.4039791     0.4779618
H           5.8545483    -2.3187118     1.3356063
H           5.6852125    -2.9951544    -0.2916243
H           4.2523056    -2.8825136     0.7675042
C           3.6635051    -0.6099696    -0.3826506
N           3.3932873     0.6532807    -0.6235056
C           4.4288955     1.5408059    -0.5689950
H           4.1585135     2.5762867    -0.7669485
O           7.1527468    -0.6219540     0.2837607
28
429_C12H12N2O2_1-0-23-24 (-30,) energy =    -724.4476016
C           2.5240738    -1.5790275    -0.4288785
C           1.2874324    -1.1413738     0.0706416
H           1.2635463    -0.1864034     0.5829161
C           0.1323420    -1.9068663    -0.0536645
H          -0.8017511    -1.5561213     0.3740624
C           0.1882891    -3.1186771    -0.7402745
H          -0.7019080    -3.7330457    -0.8452222
C           1.3804096    -3.5420254    -1.3262604
H           1.3962160    -4.4618027    -1.8984439
C           2.5389394    -2.7631608    -1.2084577
O           3.7007503    -3.0580670    -1.8561955
C           3.7487301    -4.1968075    -2.7053412
H           4.7535245    -4.2046137    -3.1305553
H           3.0110714    -4.1227478    -3.5137882
H           3.5836827    -5.1260555    -2.1452570
C           5.6979075     1.2175249    -0.2708910
H           6.4933962     1.9532975    -0.2622041
C           6.0700759    -0.1662924    -0.1198753
N           4.9520784    -1.0633900    -0.1017637
C           5.2910076    -2.4200526     0.3443447
H           5.9848454    -2.3262693     1.1815503
H           5.7860250    -2.9786628    -0.4503778
H           4.3864745    -2.9367839     0.6583622
C           3.6710456    -0.6279879    -0.3484870
N           3.3634084     0.6502504    -0.4121311
C           4.3811924     1.5546384    -0.3584191
H           4.0738625     2.5975454    -0.4090574
O           7.2030402    -0.6086709     0.0379474
28
429_C12H12N2O2_1-0-23-24 (-15,) energy =    -724.4418277
C           2.5229508    -1.5939472    -0.3978944
C           1.2582530    -1.1024834    -0.0215040
H           1.2263997    -0.1229571     0.4398092
C           0.0944648    -1.8454761    -0.1757425
H          -0.8541819    -1.4467004     0.1700232
C           0.1600970    -3.0968481    -0.7868616
H          -0.7355682    -3.7001677    -0.9083102
C           1.3723668    -3.5661780    -1.2855054
H           1.3995544    -4.5098147    -1.8165573
C           2.5393542    -2.8003276    -1.1506951
O           3.7021478    -3.1334367    -1.7744953
C           3.7460001    -4.2912292    -2.5976545
H           4.7559086    -4.3197081    -3.0097772
H           3.0193596    -4.2259197    -3.4166304
H           3.5635152    -5.2062019    -2.0199444
C           5.6711376     1.2430513    -0.2222879
H           6.4535563     1.9925883    -0.2139978
C           6.0724457    -0.1400041    -0.2295464
N           4.9739176    -1.0626259    -0.1859616
C           5.3746778    -2.4153422     0.2250775
H           6.1089817    -2.3042540     1.0254008
H           5.8443079    -2.9559015    -0.5959423
H           4.5051845    -2.9599414     0.5862368
C           3.6687743    -0.6381327    -0.3128533
N           3.3460965     0.6343605    -0.1938097
C           4.3474421     1.5531985    -0.1379132
H           4.0202932     2.5864601    -0.0370474
O           7.2210260    -0.5691901    -0.1988523
28
429_C12H12N2O2_1-0-23-24 (0,) energy =    -724.4332354
C           2.5307844    -1.4565812    -0.6887253
C           1.2545867    -0.9380838    -0.3760599
H           1.2231178     0.0654584     0.0289658
C           0.0756877    -1.6233886    -0.6337280
H          -0.8805112    -1.1560527    -0.4197220
C           0.1379867    -2.9148394    -1.1549081
H          -0.7698813    -3.4669481    -1.3827846
C           1.3744660    -3.5245212    -1.3372189
H           1.4144225    -4.5548021    -1.6684033
C           2.5616566    -2.8402337    -1.0326540
O           3.7578945    -3.4840670    -0.9875091
C           3.8189966    -4.8794105    -1.2498344
H           4.8643633    -5.1577757    -1.1066163
H           3.5195990    -5.1123171    -2.2794485
H           3.1914855    -5.4446435    -0.5501980
C           5.7184259     0.8693041     0.8920128
H           6.5055817     1.4522448     1.3551192
C           6.1077859    -0.2279187     0.0451038
N           5.0052653    -0.9003509    -0.5856643
C           5.4064652    -1.5982832    -1.8177580
H           6.1297601    -0.9548916    -2.3236131
H           4.5367767    -1.7511253    -2.4518621
H           5.8906256    -2.5494613    -1.6027844
C           3.7002517    -0.6523118    -0.2051542
N           3.3958797     0.4477403     0.4571170
C           4.3995341     1.1975304     0.9820854
H           4.0788421     2.0925233     1.5122502
O           7.2540412    -0.5584434    -0.2398657
28
429_C12H12N2O2_1-0-23-24 (15,) energy =    -724.4418276
C           2.5338918    -1.4624962    -0.6663474
C           1.2590953    -0.8927587    -0.4849478
H           1.2218238     0.1301861    -0.1307305
C           0.0879545    -1.5744449    -0.7916063
H          -0.8727510    -1.0814096    -0.6799519
C           0.1628500    -2.8954717    -1.2308819
H          -0.7390938    -3.4449186    -1.4869655
C           1.3967466    -3.5361849    -1.3049866
H           1.4365213    -4.5819525    -1.5842032
C           2.5735215    -2.8515196    -0.9686738
O           3.7734899    -3.4832797    -0.8542585
C           3.8484723    -4.8852569    -1.0752733
H           4.8885049    -5.1563585    -0.8870999
H           3.5860128    -5.1471839    -2.1080992
H           3.1975522    -5.4333658    -0.3832730
C           5.7508769     0.8074860     0.9114536
H           6.5549288     1.3788943     1.3598331
C           6.1036645    -0.1763652    -0.0792475
N           4.9744404    -0.8469617    -0.6581000
C           5.2919736    -1.5188729    -1.9257693
H           5.9589683    -0.8574742    -2.4822969
H           4.3766501    -1.6888950    -2.4882264
H           5.8108198    -2.4615072    -1.7553141
C           3.7003834    -0.6767773    -0.1605595
N           3.4125324     0.3080841     0.6669419
C           4.4362389     1.0419808     1.1802208
H           4.1372400     1.8423115     1.8546898
O           7.2300008    -0.4228323    -0.4975959
28
429_C12H12N2O2_1-0-23-24 (30,) energy =    -724.4476010
C           2.5560747    -1.4841750    -0.6499599
C           1.2976486    -0.8644686    -0.5969991
H           1.2637966     0.1765780    -0.2969308
C           0.1310699    -1.5397948    -0.9414696
H          -0.8231171    -1.0223905    -0.9235340
C           0.2026166    -2.8854254    -1.2981042
H          -0.6966075    -3.4296986    -1.5739294
C           1.4245811    -3.5562489    -1.2756303
H           1.4561082    -4.6139619    -1.5077040
C           2.5957821    -2.8758772    -0.9176870
O           3.7974634    -3.4983614    -0.7596671
C           3.8775143    -4.9048167    -0.9483070
H           4.9140794    -5.1715142    -0.7364608
H           3.6324210    -5.1891269    -1.9795799
H           3.2147654    -5.4383554    -0.2559680
C           5.8001522     0.7447991     0.9083064
H           6.6165886     1.3075759     1.3453064
C           6.1099918    -0.1323996    -0.1920336
N           4.9643484    -0.8035476    -0.7326386
C           5.2166417    -1.4564257    -2.0228636
H           5.8403539    -0.7839245    -2.6143149
H           4.2712719    -1.6396058    -2.5293485
H           5.7568423    -2.3934743    -1.8857340
C           3.7246199    -0.7056910    -0.1451989
N           3.4679720     0.1582790     0.8141527
C           4.5080825     0.8807585     1.3169895
H           4.2423078     1.5845245     2.1035887
O           7.2094877    -0.3017512    -0.7083707
28
429_C12H12N2O2_1-0-23-24 (45,) energy =    -724.4504075
C           2.5564052    -1.4998766    -0.6242772
C           1.3177149    -0.8514955    -0.6973483
H           1.2815405     0.2049813    -0.4536254
C           0.1625837    -1.5308738    -1.0787411
H          -0.7828176    -1.0019796    -1.1494005
C           0.2352785    -2.8941048    -1.3580122
H          -0.6553952    -3.4405601    -1.6562524
C           1.4456546    -3.5793006    -1.2411197
H           1.4765302    -4.6455321    -1.4315011
C           2.6042544    -2.8937512    -0.8574298
O           3.8095212    -3.4990067    -0.6563224
C           3.9022751    -4.9091401    -0.8082837
H           4.9354038    -5.1645899    -0.5678930
H           3.6805406    -5.2197447    -1.8373544
H           3.2276281    -5.4297997    -0.1175102
C           5.8299892     0.7059781     0.8886796
H           6.6592922     1.2632563     1.3083620
C           6.0806229    -0.0556116    -0.3096010
N           4.9208383    -0.7325676    -0.8077696
C           5.1049042    -1.3591256    -2.1211000
H           5.6959468    -0.6781426    -2.7348294
H           4.1331702    -1.5387603    -2.5773532
H           5.6510090    -2.2989555    -2.0241750
C           3.7276957    -0.7205726    -0.1278742
N           3.5235402     0.0121392     0.9436981
C           4.5800012     0.7277238     1.4284254
H           4.3640170     1.3261287     2.3114670
O           7.1409761    -0.1371443    -0.9203498
28
429_C12H12N2O2_1-0-23-24 (60,) energy =    -724.4508442
C           2.5426200    -1.5009389    -0.5898640
C           1.3340541    -0.8314962    -0.7975153
H           1.2987411     0.2376188    -0.6123304
C           0.1945178    -1.5138241    -1.2248465
H          -0.7337437    -0.9757009    -1.3899648
C           0.2617276    -2.8900995    -1.4285587
H          -0.6171839    -3.4381210    -1.7572255
C           1.4520479    -3.5866700    -1.2062891
H           1.4796685    -4.6596668    -1.3556234
C           2.5943042    -2.8979209    -0.7844322
O           3.7950630    -3.4917318    -0.5249190
C           3.8944119    -4.9052741    -0.6345020
H           4.9199012    -5.1522669    -0.3557036
H           3.7044803    -5.2445312    -1.6609499
H           3.1992400    -5.4080037     0.0493251
C           5.8545096     0.6456924     0.9156775
H           6.6982919     1.1873879     1.3270153
C           6.0357166     0.0147950    -0.3689266
N           4.8602876    -0.6512728    -0.8426491
C           4.9738824    -1.2245133    -2.1877195
H           5.5778662    -0.5460943    -2.7901485
H           3.9805832    -1.3422569    -2.6178146
H           5.4761596    -2.1938518    -2.1455538
C           3.7191825    -0.7318293    -0.0849650
N           3.5824493    -0.1437456     1.0794335
C           4.6575752     0.5520137     1.5576127
H           4.5023314     1.0337419     2.5210312
O           7.0530252     0.0214941    -1.0535877
28
429_C12H12N2O2_1-0-23-24 (75,) energy =    -724.4499296
C           2.6595880    -1.5229830    -0.6760003
C           1.4850057    -0.8323288    -0.9776672
H           1.4665797     0.2462266    -0.8500630
C           0.3458371    -1.5087895    -1.4194481
H          -0.5607930    -0.9576863    -1.6494119
C           0.3855418    -2.8944278    -1.5518839
H          -0.4939530    -3.4364519    -1.8887648
C           1.5499210    -3.6073723    -1.2538941
H           1.5594760    -4.6859215    -1.3602275
C           2.6911383    -2.9243532    -0.8216459
O           3.8811670    -3.5228103    -0.5222333
C           3.9559426    -4.9417375    -0.5544359
H           4.9713425    -5.1919534    -0.2434345
H           3.7785135    -5.3322748    -1.5648179
H           3.2388102    -5.3943269     0.1416484
C           6.0377830     0.5649766     0.7513587
H           6.9011939     1.0966506     1.1341162
C           6.0980820     0.1100834    -0.6175076
N           4.9062623    -0.5685755    -1.0343614
C           4.8810823    -1.0563602    -2.4191732
H           5.7006752    -0.5664309    -2.9419800
H           3.9250986    -0.8120514    -2.8844801
H           5.0307712    -2.1390903    -2.4380159
C           3.8564738    -0.7767860    -0.1768061
N           3.8312903    -0.3580145     1.0632986
C           4.9340065     0.3194129     1.5085307
H           4.8802892     0.6579061     2.5413828
O           7.0351888     0.2624079    -1.3933204
28
429_C12H12N2O2_1-0-23-24 (90,) energy =    -724.4486153
C           2.6794143    -1.5447797    -0.6878258
C           1.5429974    -0.8490375    -1.1003429
H           1.5433522     0.2364091    -1.0467775
C           0.4092510    -1.5284576    -1.5526443
H          -0.4712789    -0.9743602    -1.8628486
C           0.4208855    -2.9203739    -1.5927656
H          -0.4548213    -3.4639442    -1.9369559
C           1.5527616    -3.6374967    -1.1960453
H           1.5435432    -4.7204266    -1.2395108
C           2.6881726    -2.9518631    -0.7516351
O           3.8568379    -3.5490859    -0.3800877
C           3.9156374    -4.9682066    -0.3509606
H           4.9186189    -5.2160284    -0.0001936
H           3.7629401    -5.3989739    -1.3490835
H           3.1737386    -5.3844064     0.3420713
C           6.0539159     0.5423081     0.7484322
H           6.9141478     1.0804380     1.1293502
C           6.0180631     0.2797772    -0.6708678
N           4.8426634    -0.4353446    -1.0758866
C           4.7421243    -0.7930374    -2.4972645
H           5.6203884    -0.3740811    -2.9856467
H           3.8326664    -0.3770760    -2.9354777
H           4.7339962    -1.8800526    -2.6094751
C           3.8789020    -0.8098366    -0.1746236
N           3.9424370    -0.5674546     1.1089505
C           5.0437725     0.1133949     1.5531843
H           5.0683281     0.3002139     2.6249547
O           6.8697844     0.6043010    -1.4907967
28
429_C12H12N2O2_1-0-23-24 (105,) energy =    -724.4479132
C           2.6858108    -1.6523843    -0.6603214
C           1.5954578    -0.9365833    -1.1587837
H           1.6412353     0.1493381    -1.1706935
C           0.4501979    -1.5915838    -1.6152731
H          -0.3930627    -1.0195531    -1.9896925
C           0.4026504    -2.9830101    -1.5759168
H          -0.4814140    -3.5094931    -1.9253580
C           1.4856645    -3.7212411    -1.0929860
H           1.4301965    -4.8034611    -1.0784541
C           2.6329989    -3.0618213    -0.6363626
O           3.7505778    -3.6907599    -0.1811982
C           3.7402701    -5.1068024    -0.0776632
H           4.7126107    -5.3801318     0.3350417
H           3.6155891    -5.5826255    -1.0592772
H           2.9478183    -5.4532969     0.5976746
C           5.9700596     0.4741904     0.9311075
H           6.7954672     1.0332873     1.3563139
C           5.8398425     0.4768713    -0.5053475
N           4.7349956    -0.3055770    -0.9724570
C           4.6146579    -0.3979300    -2.4327633
H           5.6201969    -0.4675710    -2.8480702
H           4.1442651     0.5037441    -2.8373540
H           4.0231075    -1.2713700    -2.6981493
C           3.8747092    -0.9335589    -0.1058209
N           4.0159525    -0.9145099     1.1953322
C           5.0771942    -0.2132365     1.6959253
H           5.1677046    -0.2267630     2.7803228
O           6.5638355     1.0529713    -1.3101174
28
429_C12H12N2O2_1-0-23-24 (120,) energy =    -724.4471552
C           2.7467772    -1.7006961    -0.7050353
C           1.7050774    -0.9853943    -1.3047022
H           1.7921403     0.0945657    -1.3883526
C           0.5505294    -1.6229974    -1.7584550
H          -0.2527797    -1.0454649    -2.2051896
C           0.4427832    -3.0050603    -1.6228580
H          -0.4490874    -3.5206091    -1.9687757
C           1.4770134    -3.7469820    -1.0495447
H           1.3776415    -4.8228218    -0.9671648
C           2.6363599    -3.1061080    -0.5938337
O           3.7070506    -3.7581409    -0.0716838
C           3.6311003    -5.1642791     0.1069894
H           4.5793317    -5.4549109     0.5617725
H           3.5118479    -5.6881951    -0.8506049
H           2.8070785    -5.4398250     0.7772467
C           6.0130232     0.4433468     0.9016357
H           6.8280833     1.0095477     1.3371625
C           5.7707385     0.6100499    -0.5096351
N           4.6942348    -0.1991357    -1.0002606
C           4.5165567    -0.1597718    -2.4578031
H           5.5064889    -0.1067813    -2.9115217
H           3.9629148     0.7350425    -2.7582937
H           3.9852628    -1.0495851    -2.7880278
C           3.9372590    -0.9834540    -0.1604152
N           4.1908738    -1.1195514     1.1178511
C           5.2389764    -0.4097344     1.6285744
H           5.4214476    -0.5579592     2.6912253
O           6.3916781     1.3319957    -1.2825227
28
429_C12H12N2O2_1-0-23-24 (135,) energy =    -724.4447332
C           2.7796828    -1.7302506    -0.7139908
C           1.7850766    -1.0386657    -1.4187607
H           1.8922150     0.0329915    -1.5546052
C           0.6370781    -1.6728267    -1.8896039
H          -0.1270662    -1.1033662    -2.4093549
C           0.4862145    -3.0408577    -1.6776469
H          -0.4008268    -3.5568664    -2.0351006
C           1.4743588    -3.7670265    -1.0130492
H           1.3461722    -4.8340725    -0.8768126
C           2.6301309    -3.1307910    -0.5388532
O           3.6542653    -3.7947643     0.0504409
C           3.5348854    -5.1922272     0.2667335
H           4.4578597    -5.4910119     0.7660160
H           3.4383446    -5.7426405    -0.6785371
H           2.6801561    -5.4278425     0.9134113
C           6.0596210     0.4133664     0.8768131
H           6.8742360     0.9783486     1.3146507
C           5.7043589     0.7112139    -0.4874188
N           4.6432235    -0.1092289    -0.9959896
C           4.4278692     0.0265832    -2.4437188
H           5.4031437     0.1782950    -2.9068663
H           3.8140871     0.9029757    -2.6721074
H           3.9507599    -0.8704080    -2.8320565
C           3.9739858    -1.0084223    -0.1899377
N           4.3497508    -1.2749163     1.0381069
C           5.3971154    -0.5682313     1.5494728
H           5.6757701    -0.8303070     2.5684886
O           6.2343721     1.5418751    -1.2179799
28
429_C12H12N2O2_1-0-23-24 (150,) energy =    -724.4399341
C           3.1815740    -2.3639746    -0.4873229
C           2.6293948    -2.8650127     0.7031288
H           3.1157285    -2.6276156     1.6419204
C           1.5426992    -3.7348640     0.7193818
H           1.1702704    -4.1235061     1.6619987
C           0.9510795    -4.0976407    -0.4872383
H           0.1014600    -4.7749778    -0.5028920
C           1.4399443    -3.5886676    -1.6884201
H           0.9534517    -3.8670437    -2.6150839
C           2.5347624    -2.7111271    -1.7099003
O           2.9820084    -2.1403346    -2.8522265
C           2.3442675    -2.4533963    -4.0805909
H           2.8777492    -1.8786941    -4.8392677
H           1.2866124    -2.1583215    -4.0770776
H           2.4225177    -3.5225933    -4.3153221
C           6.5918447     0.1468227    -0.3610900
H           7.4939946     0.7462279    -0.3258908
C           5.6719600     0.2660183     0.7407991
N           4.4818819    -0.5227572     0.5922654
C           3.4188567    -0.1443819     1.5367683
H           3.4954988     0.9316412     1.6953908
H           3.5529395    -0.6274234     2.5090325
H           2.4465263    -0.4030691     1.1234455
C           4.3374761    -1.4240995    -0.4518301
N           5.1725147    -1.4514442    -1.4641094
C           6.2766829    -0.6566550    -1.4138117
H           6.9269669    -0.7160649    -2.2847991
O           5.7987594     0.9948749     1.7194786
28
429_C12H12N2O2_1-0-23-24 (165,) energy =    -724.4329872
C           3.1497591    -2.3247258    -0.5076244
C           2.5285658    -2.7660493     0.6761871
H           2.9810695    -2.5165494     1.6253412
C           1.4275335    -3.6156207     0.6920351
H           1.0138733    -3.9488729     1.6386508
C           0.8766972    -4.0296524    -0.5163453
H           0.0143953    -4.6906467    -0.5353805
C           1.4336169    -3.5963662    -1.7153706
H           0.9873074    -3.9200298    -2.6471053
C           2.5469306    -2.7403620    -1.7398169
O           3.0502489    -2.2752215    -2.9044675
C           2.4365495    -2.6438616    -4.1299479
H           3.0107820    -2.1325967    -4.9041805
H           1.3897086    -2.3163043    -4.1767323
H           2.4865826    -3.7271498    -4.2989481
C           6.5486384     0.2184511    -0.4017661
H           7.4560937     0.8102231    -0.3761952
C           5.7416863     0.1840219     0.7903655
N           4.5243241    -0.5671943     0.6556746
C           3.5380290    -0.2221080     1.6938767
H           3.6986360     0.8251836     1.9508822
H           3.6835859    -0.8040505     2.6087224
H           2.5300052    -0.3692935     1.3115247
C           4.2842726    -1.3563841    -0.4674641
N           5.0067129    -1.2174652    -1.5548404
C           6.1069150    -0.4189826    -1.5195323
H           6.6473605    -0.3379467    -2.4611596
O           5.9718913     0.7818934     1.8368430
28
429_C12H12N2O2_1-0-23-24 (180,) energy =    -724.4258784
C           3.0187142    -2.2057432    -0.5108350
C           2.3287063    -2.6165365     0.6485590
H           2.6984407    -2.3262595     1.6160888
C           1.2342301    -3.4741636     0.6384595
H           0.7680077    -3.7611328     1.5758293
C           0.7584047    -3.9531843    -0.5758854
H          -0.1006780    -4.6173376    -0.6163194
C           1.3992960    -3.5854737    -1.7527810
H           1.0258231    -3.9708926    -2.6926094
C           2.5118015    -2.7272569    -1.7540332
O           3.1134710    -2.3895724    -2.9154071
C           2.6229404    -2.9075707    -4.1423156
H           3.2769414    -2.4903704    -4.9097817
H           1.5897562    -2.5908870    -4.3353091
H           2.6797545    -4.0033138    -4.1741102
C           6.4418094     0.3270461    -0.5029647
H           7.3623530     0.8983822    -0.5195609
C           5.8148861     0.1116775     0.7739433
N           4.5586973    -0.5904558     0.7118481
C           3.7491840    -0.3702133     1.9223642
H           4.0942849     0.5643790     2.3631304
H           3.9002461    -1.1526387     2.6726783
H           2.6957127    -0.2948431     1.6572614
C           4.1398087    -1.2124439    -0.4687589
N           4.7096975    -0.9043123    -1.6104111
C           5.8168195    -0.1186605    -1.6248425
H           6.2054182     0.1123610    -2.6154192
O           6.2224491     0.5345214     1.8514823
