28
129_C14H11N3_8-7-23-24 (-165,) energy =    -704.3641407
C           5.8420051     1.0380347    -0.2373868
H           6.6916777     1.5025566    -0.7306449
C           6.0394093     0.0409759     0.7192425
H           7.0425082    -0.2764545     0.9905496
C           4.9336158    -0.5729206     1.2981132
H           5.0613361    -1.3883015     2.0031574
C           3.6247089    -0.1904331     0.9635150
C           3.4210372     0.8997416     0.0780394
C           4.5523740     1.4516073    -0.5519513
H           4.3903398     2.2480167    -1.2683449
C           1.2882642    -2.2378849     2.7807299
H           0.9086058    -2.6517520     3.7051945
N           2.3477379    -1.3590575     2.7742299
C           2.5471926    -1.0471256     1.5039829
N           1.6605875    -1.7142616     0.6953025
H           1.6114501    -1.6407910    -0.3106699
C           0.8426670    -2.4731221     1.5034343
H           0.0553558    -3.0944244     1.1036956
C          -0.2956538     2.6343761    -1.0857574
H          -1.2070824     3.1011372    -1.4466471
C           0.9121247     2.8092594    -1.7619419
H           0.9558479     3.4207875    -2.6624864
N           2.0636825     2.2584289    -1.3777595
C           2.0889824     1.4934669    -0.2661022
C           0.9177364     1.2737884     0.4831336
H           0.9449842     0.7071656     1.4047992
C          -0.2782550     1.8543960     0.0682562
H          -1.1837235     1.7005698     0.6492876
28
129_C14H11N3_8-7-23-24 (-150,) energy =    -704.3670585
C           5.8464426     1.0907500    -0.1618143
H           6.7015420     1.5878398    -0.6118590
C           6.0333218     0.0811342     0.7847781
H           7.0345560    -0.2141212     1.0864520
C           4.9269872    -0.5722688     1.3168741
H           5.0506889    -1.3936854     2.0150801
C           3.6199890    -0.2178299     0.9430657
C           3.4247027     0.8729418     0.0586571
C           4.5578182     1.4731685    -0.5182425
H           4.3981715     2.2750701    -1.2302209
C           1.3492435    -2.3957721     2.6769370
H           1.0379403    -2.9194696     3.5707541
N           2.4468437    -1.5684968     2.6809014
C           2.5408486    -1.0874723     1.4501406
N           1.5437509    -1.5968583     0.6555982
H           1.4028060    -1.3861953    -0.3217622
C           0.7702340    -2.4305812     1.4317803
H          -0.0853680    -2.9557551     1.0345696
C          -0.2986736     2.5762560    -1.0919428
H          -1.2175705     3.0335582    -1.4460474
C           0.8460420     2.5699527    -1.8891271
H           0.8309612     3.0257456    -2.8783796
N           2.0062646     2.0218680    -1.5199801
C           2.0921287     1.4440419    -0.3044022
C           0.9903538     1.4147453     0.5705020
H           1.0857272     0.9829378     1.5599654
C          -0.2126535     1.9889658     0.1696460
H          -1.0678908     1.9838120     0.8401959
28
129_C14H11N3_8-7-23-24 (-135,) energy =    -704.3683916
C           5.8382152     1.1567882    -0.0824003
H           6.6918170     1.6929988    -0.4879760
C           6.0242729     0.1235514     0.8391378
H           7.0245881    -0.1524079     1.1615435
C           4.9238494    -0.5742076     1.3245305
H           5.0503480    -1.4065096     2.0088888
C           3.6176246    -0.2438727     0.9246957
C           3.4225361     0.8512885     0.0485013
C           4.5495412     1.5096514    -0.4698599
H           4.3879098     2.3252219    -1.1669290
C           1.3896038    -2.5185941     2.5788037
H           1.1240113    -3.1248901     3.4343647
N           2.5158109    -1.7335867     2.5834502
C           2.5389479    -1.1250662     1.4057210
N           1.4627152    -1.5102899     0.6449735
H           1.2624577    -1.1997331    -0.2945846
C           0.7178583    -2.3993114     1.3859940
H          -0.1868561    -2.8485209     1.0047559
C          -0.3054042     2.5367659    -1.0845073
H          -1.2286945     2.9902412    -1.4321686
C           0.7618106     2.3396814    -1.9603670
H           0.6800160     2.6387126    -3.0044957
N           1.9266661     1.7876760    -1.6038421
C           2.0838277     1.3983902    -0.3232863
C           1.0657714     1.5684499     0.6323491
H           1.2308381     1.2696914     1.6620052
C          -0.1403441     2.1435261     0.2438842
H          -0.9349973     2.2908938     0.9704297
28
129_C14H11N3_8-7-23-24 (-120,) energy =    -704.3682998
C           5.8378066     1.2124601     0.0045934
H           6.6883475     1.7823975    -0.3591687
C           6.0252075     0.1451553     0.8864644
H           7.0247434    -0.1240417     1.2169677
C           4.9307482    -0.5911798     1.3257335
H           5.0600655    -1.4427794     1.9852457
C           3.6258919    -0.2683556     0.9141309
C           3.4308042     0.8451053     0.0646810
C           4.5496607     1.5533482    -0.3978236
H           4.3879168     2.3930686    -1.0668431
C           1.3989185    -2.6112134     2.4663233
H           1.1490753    -3.2782042     3.2805028
N           2.5490331    -1.8637503     2.4844827
C           2.5429216    -1.1596349     1.3604665
N           1.4205730    -1.4445222     0.6218040
H           1.2000392    -1.0650869    -0.2877360
C           0.6811829    -2.3722889     1.3187295
H          -0.2541995    -2.7598644     0.9439511
C          -0.3211338     2.4786001    -1.0538422
H          -1.2551669     2.9116883    -1.3989142
C           0.6521486     2.0763076    -1.9673365
H           0.4854615     2.1907608    -3.0374934
N           1.8273036     1.5367196    -1.6171634
C           2.0818308     1.3722422    -0.3052031
C           1.1631804     1.7548888     0.6875151
H           1.4114908     1.6175392     1.7350345
C          -0.0527184     2.3131677     0.3058022
H          -0.7750664     2.6216211     1.0568540
28
129_C14H11N3_8-7-23-24 (-105,) energy =    -704.3680323
C           5.8549573     1.2535722     0.0823469
H           6.7075309     1.8395995    -0.2496635
C           6.0372401     0.1483191     0.9169792
H           7.0348752    -0.1329674     1.2432160
C           4.9414097    -0.6097091     1.3145109
H           5.0675156    -1.4876727     1.9392694
C           3.6400984    -0.2715535     0.9045834
C           3.4509104     0.8779402     0.1060675
C           4.5683526     1.6099336    -0.3156987
H           4.4140512     2.4810054    -0.9463244
C           1.3713706    -2.6575805     2.3211565
H           1.1031752    -3.3599847     3.0989628
N           2.5326221    -1.9304710     2.3864795
C           2.5455651    -1.1709365     1.2993867
N           1.4245242    -1.3977111     0.5386331
H           1.2323286    -0.9827762    -0.3631419
C           0.6673084    -2.3493600     1.1811986
H          -0.2704310    -2.7036867     0.7802578
C          -0.3632650     2.3763491    -1.0016528
H          -1.3229670     2.7531088    -1.3423527
C           0.5004289     1.7370463    -1.8895251
H           0.2202202     1.6055705    -2.9336240
N           1.6999997     1.2469393    -1.5430735
C           2.0914301     1.3885116    -0.2629606
C           1.2848479     2.0098128     0.7032327
H           1.6382596     2.0948527     1.7259304
C           0.0420449     2.5110702     0.3267520
H          -0.5980671     2.9999767     1.0562627
28
129_C14H11N3_8-7-23-24 (-90,) energy =    -704.3688252
C           5.8350458     1.2707092     0.1893142
H           6.6882431     1.8731519    -0.1100648
C           6.0135380     0.1298457     0.9743598
H           7.0088612    -0.1627505     1.2977036
C           4.9164188    -0.6488654     1.3262042
H           5.0388388    -1.5513206     1.9158331
C           3.6175533    -0.3009724     0.9168177
C           3.4310741     0.8861624     0.1741993
C           4.5498121     1.6402450    -0.2029379
H           4.4002286     2.5405992    -0.7928913
C           1.3485993    -2.7422167     2.2314105
H           1.0705090    -3.4648383     2.9869988
N           2.4990523    -2.0034296     2.3398905
C           2.5250821    -1.2200076     1.2694858
N           1.4251447    -1.4403635     0.4789190
H           1.2616050    -1.0059544    -0.4217575
C           0.6672128    -2.4159309     1.0821226
H          -0.2568778    -2.7726689     0.6525093
C          -0.3817837     2.3754187    -0.9674937
H          -1.3450474     2.7381095    -1.3131005
C           0.3659013     1.4990411    -1.7526018
H          -0.0112247     1.1629375    -2.7172331
N           1.5616937     1.0099517    -1.3928802
C           2.0753752     1.4025287    -0.2111860
C           1.3818997     2.2588514     0.6553925
H           1.8228456     2.5305923     1.6091398
C           0.1380688     2.7537776     0.2697586
H          -0.4155594     3.4214301     0.9245039
28
129_C14H11N3_8-7-23-24 (-75,) energy =    -704.3706634
C           5.7908031     1.3035085     0.2739147
H           6.6356400     1.9315222     0.0050281
C           5.9804837     0.1340381     1.0118140
H           6.9768698    -0.1571393     1.3331632
C           4.8920266    -0.6742341     1.3197854
H           5.0233771    -1.5952930     1.8775861
C           3.5890186    -0.3372224     0.9116681
C           3.3886642     0.8801172     0.2190682
C           4.5022615     1.6662190    -0.1119308
H           4.3438392     2.5879761    -0.6656679
C           1.4039167    -2.8812200     2.1671938
H           1.1545614    -3.6349771     2.9022253
N           2.5321269    -2.1123343     2.2884354
C           2.5226452    -1.2952245     1.2413192
N           1.4251994    -1.5260542     0.4540030
H           1.2476715    -1.0532109    -0.4277646
C           0.7023823    -2.5402689     1.0334184
H          -0.2146794    -2.9118890     0.6011776
C          -0.3809044     2.4479006    -0.9707615
H          -1.3346379     2.8260397    -1.3257109
C           0.2347643     1.3739083    -1.6112549
H          -0.2383588     0.8969227    -2.4679546
N           1.4104783     0.8540036    -1.2315140
C           2.0447722     1.4136344    -0.1824718
C           1.4801596     2.4727136     0.5431180
H           2.0075485     2.8749679     1.4020055
C           0.2540700     2.9982849     0.1414438
H          -0.1985379     3.8199102     0.6900876
28
129_C14H11N3_8-7-23-24 (-60,) energy =    -704.3727269
C           5.7265631     1.3451250     0.3603229
H           6.5573742     2.0068470     0.1317613
C           5.9360160     0.1476130     1.0454153
H           6.9343814    -0.1346292     1.3685620
C           4.8633927    -0.6980548     1.3002379
H           5.0095381    -1.6357637     1.8251501
C           3.5546238    -0.3814732     0.8899974
C           3.3318272     0.8600019     0.2416175
C           4.4348190     1.6890561    -0.0269045
H           4.2627093     2.6278666    -0.5466797
C           1.4918579    -3.0408271     2.1064197
H           1.2925077    -3.8298056     2.8195251
N           2.5967993    -2.2400843     2.2203722
C           2.5246223    -1.3845712     1.2044907
N           1.4130287    -1.6262777     0.4440740
H           1.1870102    -1.0994997    -0.3985402
C           0.7419456    -2.6816291     1.0087103
H          -0.1758881    -3.0687627     0.5918197
C          -0.3906530     2.5004402    -1.0081641
H          -1.3333756     2.8944451    -1.3746844
C           0.1006894     1.2871449    -1.4844620
H          -0.4590603     0.7169107    -2.2236975
N           1.2561789     0.7411136    -1.0812387
C           1.9988279     1.4042221    -0.1724399
C           1.5588346     2.6162641     0.3852428
H           2.1642147     3.1073098     1.1399254
C           0.3543790     3.1705758    -0.0388450
H           0.0011377     4.1067752     0.3850032
28
129_C14H11N3_8-7-23-24 (-45,) energy =    -704.3736742
C           5.6850058     1.3840103     0.4657521
H           6.5057741     2.0719787     0.2832995
C           5.9051228     0.1568954     1.0921142
H           6.9024997    -0.1264111     1.4173223
C           4.8423773    -0.7145334     1.2869165
H           4.9952941    -1.6708100     1.7742684
C           3.5303697    -0.4048731     0.8754610
C           3.2959290     0.8607242     0.2687027
C           4.3948721     1.7210447     0.0741400
H           4.2233563     2.6750162    -0.4161394
C           1.5850302    -3.1696990     2.0458883
H           1.4410750    -3.9985428     2.7264799
N           2.6747672    -2.3491965     2.1431457
C           2.5314391    -1.4454454     1.1746435
N           1.3885412    -1.6784926     0.4621054
H           1.1029788    -1.0916455    -0.3241147
C           0.7711135    -2.7743274     1.0066467
H          -0.1588286    -3.1626457     0.6185218
C          -0.3835126     2.5796428    -1.0235284
H          -1.3157185     2.9889707    -1.3996268
C          -0.0097419     1.2741220    -1.3285509
H          -0.6504685     0.6455571    -1.9443640
N           1.1275511     0.7069196    -0.9053581
C           1.9716593     1.4263233    -0.1380440
C           1.6515379     2.7452583     0.2372437
H           2.3241096     3.2948816     0.8865233
C           0.4685068     3.3243263    -0.2085771
H           0.2128203     4.3397391     0.0819610
28
129_C14H11N3_8-7-23-24 (-30,) energy =    -704.3722699
C           5.6253944     1.4068687     0.5555164
H           6.4375543     2.1151476     0.4180415
C           5.8525436     0.1541189     1.1251517
H           6.8474022    -0.1349042     1.4529583
C           4.7964579    -0.7334297     1.2606006
H           4.9526234    -1.7072171     1.7097393
C           3.4817720    -0.4237770     0.8496680
C           3.2398069     0.8626941     0.2768006
C           4.3388978     1.7420874     0.1580541
H           4.1805674     2.7077522    -0.3102288
C           1.6547489    -3.2928622     1.9576414
H           1.5695773    -4.1631429     2.5951346
N           2.7318887    -2.4572425     2.0356450
C           2.5129253    -1.5001211     1.1312227
N           1.3324735    -1.7179496     0.4800992
H           0.9860534    -1.0710213    -0.2343786
C           0.7693101    -2.8539398     0.9961050
H          -0.1767456    -3.2382001     0.6443782
C          -0.4274557     2.6128459    -1.0473261
H          -1.3562090     3.0211561    -1.4325378
C          -0.1445308     1.2567472    -1.1670226
H          -0.8526461     0.5836427    -1.6471362
N           0.9858935     0.6913395    -0.7260372
C           1.9168285     1.4484492    -0.1085785
C           1.6894671     2.8308745     0.0644514
H           2.4116911     3.4340853     0.6012887
C           0.5169968     3.4112156    -0.4027929
H           0.3410840     4.4738018    -0.2585180
28
129_C14H11N3_8-7-23-24 (-15,) energy =    -704.3684699
C           5.5758973     1.4100490     0.6595042
H           6.3839404     2.1307763     0.5715826
C           5.8003377     0.1318651     1.1685094
H           6.7899982    -0.1724597     1.4981136
C           4.7436233    -0.7588971     1.2429776
H           4.8964062    -1.7512999     1.6491890
C           3.4279762    -0.4377054     0.8346188
C           3.1903013     0.8724109     0.2975042
C           4.2963801     1.7548290     0.2547558
H           4.1647765     2.7362945    -0.1826728
C           1.7068227    -3.4091715     1.8459725
H           1.6773449    -4.3234535     2.4242358
N           2.7750176    -2.5641596     1.9077093
C           2.4840810    -1.5473302     1.0889095
N           1.2645547    -1.7422901     0.5087319
H           0.8606455    -1.0292659    -0.1088616
C           0.7507575    -2.9178315     0.9812430
H          -0.2137866    -3.2911208     0.6700271
C          -0.4914104     2.6144388    -1.0563359
H          -1.4260994     3.0077807    -1.4423672
C          -0.2764128     1.2454085    -0.9651654
H          -1.0445807     0.5406359    -1.2792655
N           0.8595280     0.7008196    -0.5144100
C           1.8714108     1.4818529    -0.0809026
C           1.7144349     2.8869024    -0.1409091
H           2.4816572     3.5445589     0.2448814
C           0.5389052     3.4473399    -0.6213364
H           0.4287751     4.5280425    -0.6491271
28
129_C14H11N3_8-7-23-24 (0,) energy =    -704.3648333
C           5.5669609     1.4515295     0.8560632
H           6.3678477     2.1850082     0.8305218
C           5.7857809     0.1549108     1.3159246
H           6.7658528    -0.1604247     1.6632825
C           4.7306107    -0.7368614     1.3253583
H           4.8809346    -1.7493239     1.6781269
C           3.4205210    -0.4146303     0.8919394
C           3.1831931     0.9265715     0.4154553
C           4.2992582     1.8013008     0.4257184
H           4.1836284     2.8173542     0.0796250
C           1.8716119    -3.5945758     1.4784249
H           1.9426634    -4.6214143     1.8128676
N           2.9505273    -2.7657874     1.4972635
C           2.5212101    -1.5868353     1.0248854
N           1.1967275    -1.6669586     0.7127700
H           0.7100595    -0.8420541     0.3365741
C           0.7631974    -2.9309828     0.9922855
H          -0.2588209    -3.2391346     0.8273607
C          -0.5059839     2.6335399    -1.0393055
H          -1.4568751     3.0153813    -1.3957347
C          -0.3764065     1.3239543    -0.6016935
H          -1.2301517     0.6479831    -0.6067057
N           0.7705850     0.8024699    -0.1526525
C           1.9018936     1.5340082    -0.0951643
C           1.8332061     2.8821090    -0.5297167
H           2.6963836     3.5301454    -0.5138421
C           0.6430825     3.4221615    -0.9953243
H           0.6179947     4.4581650    -1.3223047
28
129_C14H11N3_8-7-23-24 (15,) energy =    -704.3684699
C           5.4547680     1.5226249     1.0253888
H           6.2320979     2.2807344     1.0586800
C           5.7047756     0.2142919     1.4363862
H           6.6877247    -0.0808149     1.7933047
C           4.6779750    -0.7128515     1.3950329
H           4.8571290    -1.7376487     1.6965286
C           3.3732679    -0.4053626     0.9437147
C           3.1036598     0.9429022     0.5300195
C           4.1868811     1.8532675     0.5748079
H           4.0108647     2.8885162     0.3115996
C           1.8862872    -3.6604076     1.0389824
H           1.9898371    -4.7363148     1.0927242
N           2.9765167    -2.8421417     1.0101763
C           2.4960997    -1.5960007     0.9371611
N           1.1317384    -1.6153238     0.9316175
H           0.5982588    -0.7457451     0.8202190
C           0.7239380    -2.9189861     0.9891215
H          -0.3199418    -3.1962009     0.9923917
C          -0.5307112     2.6201868    -1.0205899
H          -1.4782161     3.0269781    -1.3584374
C          -0.4818829     1.4555704    -0.2656357
H          -1.3964551     0.9281945     0.0005584
N           0.6528737     0.9150905     0.1929064
C           1.8466560     1.4759194    -0.0937105
C           1.8676084     2.6623136    -0.8647401
H           2.8064360     3.1122409    -1.1582256
C           0.6868791     3.2263540    -1.3278823
H           0.7210856     4.1304199    -1.9297918
28
129_C14H11N3_8-7-23-24 (30,) energy =    -704.3722704
C           5.4266525     1.5744110     1.1261292
H           6.1829822     2.3502405     1.2049717
C           5.7108857     0.2550345     1.4780362
H           6.7001985    -0.0252549     1.8293583
C           4.7130685    -0.7030520     1.3890557
H           4.9184107    -1.7349198     1.6488184
C           3.4059335    -0.4045886     0.9470722
C           3.1113849     0.9427833     0.5733479
C           4.1537484     1.8908531     0.6732636
H           3.9368142     2.9257243     0.4306593
C           1.8856308    -3.6420542     0.8657004
H           1.9728689    -4.7199985     0.8272051
N           2.9884206    -2.8372063     0.8369437
C           2.5248479    -1.5864865     0.8899117
N           1.1612046    -1.5843401     0.9623399
H           0.6263274    -0.7112369     0.9859021
C           0.7356934    -2.8853236     0.9441485
H          -0.3105870    -3.1491785     0.9894759
C          -0.4956633     2.6110628    -0.9988612
H          -1.4354653     3.0310423    -1.3425222
C          -0.4769928     1.5785802    -0.0677037
H          -1.4067246     1.1742540     0.3286682
N           0.6457926     1.0251929     0.4067890
C           1.8446916     1.4574697    -0.0369226
C           1.9025888     2.4913893    -0.9962702
H           2.8600461     2.8096709    -1.3908062
C           0.7327463     3.0652816    -1.4778694
H           0.7811041     3.8538011    -2.2240085
28
129_C14H11N3_8-7-23-24 (45,) energy =    -704.3736742
C           5.3832528     1.6142911     1.2294483
H           6.1212439     2.4017662     1.3539858
C           5.6963212     0.2866599     1.5225841
H           6.6894168     0.0169411     1.8715824
C           4.7247872    -0.6945701     1.3810436
H           4.9518317    -1.7314078     1.6019216
C           3.4173971    -0.4013802     0.9435825
C           3.1048042     0.9460036     0.6093762
C           4.1074658     1.9226004     0.7725771
H           3.8624395     2.9564766     0.5470194
C           1.8470815    -3.6074838     0.7156420
H           1.9120105    -4.6813343     0.5993144
N           2.9640255    -2.8190828     0.6834690
C           2.5269671    -1.5707102     0.8441016
N           1.1678298    -1.5495667     0.9875191
H           0.6437395    -0.6827527     1.1219377
C           0.7174789    -2.8414843     0.9055690
H          -0.3296915    -3.0919949     0.9886935
C          -0.5132851     2.5525747    -0.9689928
H          -1.4547819     2.9633506    -1.3194925
C          -0.4827381     1.6730942     0.1093061
H          -1.4036741     1.3824557     0.6115586
N           0.6414565     1.1339539     0.5989392
C           1.8214700     1.4491356     0.0270667
C           1.8711770     2.3101873    -1.0860650
H           2.8250357     2.5213896    -1.5567417
C           0.6979177     2.8648402    -1.5855366
H           0.7286852     3.5256130    -2.4476806
28
129_C14H11N3_8-7-23-24 (60,) energy =    -704.3727257
C           5.3729151     1.6514259     1.3400515
H           6.0958450     2.4428850     1.5170456
C           5.7067157     0.3159490     1.5687217
H           6.7002335     0.0489032     1.9186203
C           4.7567036    -0.6773562     1.3650639
H           4.9970976    -1.7194449     1.5450924
C           3.4532142    -0.3793086     0.9251719
C           3.1298736     0.9718909     0.6400372
C           4.0984266     1.9629610     0.8759552
H           3.8372069     2.9996334     0.6803773
C           1.8134259    -3.5390458     0.5587421
H           1.8486766    -4.6048738     0.3756685
N           2.9483249    -2.7734735     0.5316753
C           2.5470439    -1.5300598     0.7812175
N           1.1931724    -1.4862246     0.9747844
H           0.6886595    -0.6318712     1.2076953
C           0.7100709    -2.7629839     0.8356135
H          -0.3389892    -2.9955504     0.9426636
C          -0.5160779     2.4857848    -0.9497748
H          -1.4639357     2.8777712    -1.3050629
C          -0.4458232     1.7897964     0.2548523
H          -1.3426375     1.6246357     0.8493113
N           0.6876159     1.2808082     0.7568928
C           1.8334200     1.4600583     0.0697588
C           1.8443502     2.1188810    -1.1709778
H           2.7781359     2.2157688    -1.7148673
C           0.6592422     2.6389492    -1.6837794
H           0.6531749     3.1496972    -2.6429449
28
129_C14H11N3_8-7-23-24 (75,) energy =    -704.3706636
C           5.3788878     1.6750230     1.4505717
H           6.0907322     2.4638220     1.6775687
C           5.7265272     0.3337335     1.6185473
H           6.7181302     0.0630718     1.9711097
C           4.7926612    -0.6615411     1.3535982
H           5.0398281    -1.7082945     1.4949223
C           3.4958240    -0.3505953     0.9069627
C           3.1641271     1.0052470     0.6760184
C           4.1077613     1.9974798     0.9803576
H           3.8382137     3.0387350     0.8239185
C           1.7862007    -3.4561569     0.4021540
H           1.7933613    -4.5108234     0.1608657
N           2.9389023    -2.7146007     0.3921326
C           2.5725764    -1.4794897     0.7153601
N           1.2217717    -1.4145809     0.9359062
H           0.7356470    -0.5785343     1.2478334
C           0.7067959    -2.6732024     0.7423645
H          -0.3450538    -2.8878624     0.8584316
C          -0.5181971     2.4053633    -0.9259689
H          -1.4755962     2.7726093    -1.2824868
C          -0.3850847     1.9324900     0.3783939
H          -1.2414787     1.9174990     1.0504560
N           0.7631668     1.4652888     0.8884094
C           1.8578887     1.4709220     0.1024962
C           1.8055311     1.8938550    -1.2336325
H           2.7021141     1.8528453    -1.8436182
C           0.6035960     2.3701509    -1.7526553
H           0.5439888     2.7036180    -2.7852141
28
129_C14H11N3_8-7-23-24 (90,) energy =    -704.3688248
C           5.3736663     1.6937558     1.5537915
H           6.0769426     2.4774218     1.8217117
C           5.7336739     0.3493931     1.6669139
H           6.7242513     0.0751056     2.0195507
C           4.8143182    -0.6442424     1.3485526
H           5.0685979    -1.6938071     1.4526368
C           3.5229407    -0.3212551     0.8972694
C           3.1802052     1.0383248     0.7253819
C           4.1046266     2.0277411     1.0844607
H           3.8257846     3.0718494     0.9698171
C           1.7746539    -3.3812935     0.2532702
H           1.7681825    -4.4245254    -0.0331751
N           2.9386184    -2.6563714     0.2808557
C           2.5902774    -1.4320443     0.6548315
N           1.2369897    -1.3557394     0.8698677
H           0.7503470    -0.5399912     1.2225464
C           0.7049884    -2.5986628     0.6206078
H          -0.3505034    -2.8021905     0.7220140
C          -0.5251538     2.3467642    -0.8927281
H          -1.4880166     2.6961829    -1.2528250
C          -0.3153158     2.1337216     0.4689032
H          -1.1167231     2.3080911     1.1851786
N           0.8446614     1.7039379     0.9868849
C           1.8699833     1.4813406     0.1421467
C           1.7416607     1.6425534    -1.2444570
H           2.5870739     1.4292170    -1.8907324
C           0.5283067     2.0840318    -1.7675873
H           0.4075661     2.2187812    -2.8391356
28
129_C14H11N3_8-7-23-24 (105,) energy =    -704.3680323
C           5.3455758     1.7429075     1.6440858
H           6.0314474     2.5309116     1.9426983
C           5.7367670     0.4032163     1.7042280
H           6.7328656     0.1384831     2.0485133
C           4.8417841    -0.5982207     1.3442179
H           5.1191138    -1.6449182     1.4117266
C           3.5457527    -0.2852261     0.8990864
C           3.1697568     1.0714688     0.7861066
C           4.0701153     2.0669827     1.1869643
H           3.7642592     3.1069647     1.1151837
C           1.8520230    -3.3555935     0.1569032
H           1.8674677    -4.3925475    -0.1509441
N           3.0044281    -2.6148053     0.2250371
C           2.6331895    -1.4034234     0.6169139
N           1.2735191    -1.3526045     0.8056475
H           0.7582227    -0.5569104     1.1572818
C           0.7634554    -2.5969785     0.5170959
H          -0.2910241    -2.8165402     0.5914004
C          -0.5246466     2.3642619    -0.8571348
H          -1.4814385     2.7220377    -1.2253702
C          -0.2249711     2.4210973     0.5029955
H          -0.9487864     2.8217394     1.2111771
N           0.9337413     1.9997355     1.0312456
C           1.8613547     1.4989589     0.1941673
C           1.6446294     1.3939048    -1.1886267
H           2.4184447     0.9761564    -1.8248165
C           0.4356543     1.8342522    -1.7196887
H           0.2467851     1.7670572    -2.7877579
28
129_C14H11N3_8-7-23-24 (120,) energy =    -704.3682999
C           5.2910560     1.7471706     1.7150824
H           5.9591795     2.5381671     2.0444807
C           5.7122895     0.4150859     1.7228599
H           6.7134639     0.1584970     2.0583973
C           4.8395423    -0.5900112     1.3215532
H           5.1383803    -1.6324653     1.3511924
C           3.5376734    -0.2895805     0.8842862
C           3.1296001     1.0629742     0.8249795
C           4.0103672     2.0603198     1.2687345
H           3.6771096     3.0932259     1.2383537
C           1.9463436    -3.3898691     0.0391694
H           1.9983843    -4.4139203    -0.3055101
N           3.0705622    -2.6086421     0.1261845
C           2.6591321    -1.4266425     0.5654127
N           1.3006766    -1.4361852     0.7677428
H           0.7520702    -0.6700866     1.1310451
C           0.8335576    -2.6868832     0.4350327
H          -0.2115132    -2.9476767     0.5086301
C          -0.4973797     2.4837354    -0.8552550
H          -1.4262243     2.8946828    -1.2392215
C          -0.0818801     2.7681567     0.4447648
H          -0.6855724     3.4047525     1.0900686
N           1.0505694     2.2998197     0.9860517
C           1.8322361     1.5063458     0.2294265
C           1.4977153     1.1714851    -1.0941302
H           2.1611696     0.5393887    -1.6755967
C           0.3174708     1.6662921    -1.6400095
H           0.0424107     1.4249089    -2.6632789
28
129_C14H11N3_8-7-23-24 (135,) energy =    -704.3683916
C           5.2463753     1.7465995     1.8082505
H           5.8946199     2.5319288     2.1873162
C           5.6879764     0.4218964     1.7685667
H           6.6854385     0.1641530     2.1140583
C           4.8349862    -0.5761440     1.3105934
H           5.1445137    -1.6159835     1.3106984
C           3.5380617    -0.2757930     0.8600452
C           3.1160196     1.0755497     0.8298642
C           3.9733020     2.0617985     1.3443166
H           3.6248542     3.0893017     1.3471672
C           1.9984596    -3.3723954    -0.0967119
H           2.0621807    -4.3694752    -0.5113094
N           3.1003169    -2.5562529    -0.0303289
C           2.6797247    -1.4220001     0.5123214
N           1.3402671    -1.4973783     0.8048730
H           0.7883367    -0.7703466     1.2362851
C           0.8920809    -2.7394289     0.4166439
H          -0.1361696    -3.0440156     0.5414085
C          -0.4896465     2.5504826    -0.8571949
H          -1.4075970     2.9812705    -1.2454788
C           0.0513833     3.0004331     0.3468579
H          -0.4424867     3.7899420     0.9117310
N           1.1759732     2.5170311     0.8856954
C           1.8294078     1.5380094     0.2294935
C           1.3637963     1.0303841    -0.9969309
H           1.9254258     0.2606690    -1.5153962
C           0.1913345     1.5440469    -1.5426572
H          -0.1787820     1.1702808    -2.4936405
28
129_C14H11N3_8-7-23-24 (150,) energy =    -704.3670585
C           5.2106285     1.7343551     1.9047419
H           5.8358903     2.5105461     2.3376497
C           5.6669297     0.4163430     1.8346123
H           6.6537029     0.1534172     2.2058295
C           4.8346644    -0.5700184     1.3164763
H           5.1491298    -1.6084509     1.2994839
C           3.5514686    -0.2632989     0.8338442
C           3.1250500     1.0886562     0.8118887
C           3.9548837     2.0579654     1.4025257
H           3.5999683     3.0821747     1.4243787
C           2.0209132    -3.3270744    -0.2509073
H           2.0710292    -4.2817543    -0.7570222
N           3.1022212    -2.4792033    -0.2190453
C           2.7055707    -1.4136232     0.4608081
N           1.4062857    -1.5638116     0.8782741
H           0.8781491    -0.8919657     1.4160217
C           0.9549260    -2.7822470     0.4226749
H          -0.0460460    -3.1350149     0.6207874
C          -0.4820064     2.5884299    -0.8699213
H          -1.3983900     3.0264978    -1.2536200
C           0.1861772     3.1677395     0.2088971
H          -0.2047301     4.0691278     0.6793070
N           1.3126599     2.6802961     0.7344625
C           1.8507068     1.5674603     0.1950292
C           1.2504192     0.9234838    -0.9027730
H           1.7158389     0.0535598    -1.3513361
C           0.0751897     1.4434118    -1.4377063
H          -0.3923596     0.9627894    -2.2929807
28
129_C14H11N3_8-7-23-24 (165,) energy =    -704.3641407
C           5.1669664     1.7294477     1.9858621
H           5.7643962     2.5003853     2.4651962
C           5.6385971     0.4181623     1.9062990
H           6.6109531     0.1529595     2.3122163
C           4.8322461    -0.5597190     1.3333359
H           5.1540246    -1.5961337     1.3098830
C           3.5680377    -0.2504665     0.8064285
C           3.1336125     1.1003513     0.7819447
C           3.9325636     2.0569207     1.4361771
H           3.5729088     3.0785202     1.4631303
C           2.0317983    -3.2583681    -0.4368755
H           2.0481644    -4.1470387    -1.0533642
N           3.0809733    -2.3672581    -0.4413669
C           2.7398515    -1.4073367     0.4029070
N           1.5131222    -1.6663506     0.9625059
H           1.0371108    -1.0811441     1.6338777
C           1.0455609    -2.8453166     0.4245783
H           0.0923283    -3.2674722     0.7052905
C          -0.4693902     2.6342730    -0.9040691
H          -1.3809274     3.0849140    -1.2846375
C           0.3305098     3.3105067     0.0175637
H           0.0502133     4.3039339     0.3659823
N           1.4555360     2.8115902     0.5299061
C           1.8708450     1.5881979     0.1394962
C           1.1299485     0.8411514    -0.7956109
H           1.4882547    -0.1156490    -1.1525725
C          -0.0443934     1.3748275    -1.3207157
H          -0.6143846     0.8097436    -2.0534666
28
129_C14H11N3_8-7-23-24 (180,) energy =    -704.3607317
C           5.8121799     1.0195923    -0.3130199
H           6.6531401     1.4865778    -0.8189311
C           6.0228005    -0.0165744     0.5962567
H           7.0268303    -0.3661457     0.8203520
C           4.9218490    -0.6165557     1.1991207
H           5.0597524    -1.4461087     1.8863058
C           3.6114652    -0.1920445     0.9298161
C           3.3940428     0.9128193     0.0657889
C           4.5217540     1.4677930    -0.5705455
H           4.3555024     2.2896266    -1.2555892
C           1.1685322    -1.9902840     2.8825299
H           0.6751388    -2.2112427     3.8194785
N           2.1586762    -1.0347700     2.8051938
C           2.5381780    -1.0156996     1.5398862
N           1.8350277    -1.9390846     0.8054435
H           1.9474889    -2.1129346    -0.1830894
C           0.9471214    -2.5639136     1.6553478
H           0.2750979    -3.3385244     1.3176251
C          -0.2922382     2.7490528    -1.0730264
H          -1.1861983     3.2568866    -1.4218930
C           0.9681120     3.1110980    -1.5496746
H           1.0736094     3.9136376    -2.2790113
N           2.0998137     2.5239386    -1.1664883
C           2.0602674     1.5251974    -0.2582714
C           0.8298983     1.1040625     0.2795425
H           0.7796099     0.3453016     1.0460717
C          -0.3474798     1.7260731    -0.1312062
H          -1.2975860     1.4094456     0.2909553
