28
129_C14H11N3_4-6-13-12 (-165,) energy =    -704.3620968
C           5.7220814     1.2268803    -0.3026513
H           6.5588114     1.8348368    -0.6350362
C           5.9395931    -0.0035308     0.3160768
H           6.9485823    -0.3743068     0.4742491
C           4.8512258    -0.7728726     0.7101439
H           5.0460984    -1.7602964     1.1198407
C           3.5219090    -0.3455229     0.5206481
C           3.3052550     0.9305973    -0.0605121
C           4.4173791     1.6730288    -0.4873554
H           4.2308776     2.6300064    -0.9634847
C           0.5284755    -2.2297066     1.1958015
H          -0.5326732    -2.4003652     1.0740112
N           1.1532313    -1.1724910     0.5880954
C           2.4329472    -1.2522674     0.9212717
N           2.6377319    -2.3420185     1.7415793
H           3.5021643    -2.5992409     2.1929745
C           1.4272934    -2.9702603     1.9239508
H           1.3270437    -3.8564848     2.5324514
C          -0.3244825     3.0529945    -0.6099835
H          -1.2227208     3.6299802    -0.8093427
C           0.6141654     2.8333389    -1.6151371
H           0.4588079     3.2386092    -2.6141612
N           1.7454434     2.1396601    -1.4383589
C           1.9781899     1.6038518    -0.2290734
C           1.0969919     1.7842570     0.8481019
H           1.3262826     1.3538548     1.8162110
C          -0.0653857     2.5199105     0.6539961
H          -0.7590793     2.6765306     1.4759520
28
129_C14H11N3_4-6-13-12 (-150,) energy =    -704.3636757
C           5.7435577     1.1982961    -0.3505987
H           6.5863816     1.7955786    -0.6872370
C           5.9507897    -0.0392145     0.2582556
H           6.9564521    -0.4254909     0.3998855
C           4.8547329    -0.7964749     0.6576674
H           5.0239739    -1.7938066     1.0556801
C           3.5337741    -0.3408461     0.4856096
C           3.3267345     0.9378211    -0.0893183
C           4.4446017     1.6672733    -0.5229573
H           4.2682861     2.6296034    -0.9918257
C           0.5734220    -2.3045408     1.0555200
H          -0.4463716    -2.5765860     0.8186088
N           1.2214061    -1.3087045     0.3702366
C           2.4373141    -1.2367661     0.8888825
N           2.5825586    -2.1664152     1.8956896
H           3.3875961    -2.2708563     2.4954387
C           1.3935507    -2.8507362     2.0129811
H           1.2515366    -3.6350551     2.7411935
C          -0.3227563     3.0459357    -0.5592519
H          -1.2276217     3.6193763    -0.7373524
C           0.6475160     2.9266779    -1.5519045
H           0.5107211     3.4091897    -2.5188131
N           1.7861568     2.2408093    -1.4006206
C           2.0000836     1.6132971    -0.2318138
C           1.0876863     1.6922894     0.8319978
H           1.3014698     1.1964418     1.7720481
C          -0.0854311     2.4180576     0.6643378
H          -0.8030822     2.4952073     1.4769397
28
129_C14H11N3_4-6-13-12 (-135,) energy =    -704.3643819
C           5.6718908     1.1752436     0.1346339
H           6.5505710     1.7342226    -0.1753430
C           5.7845188     0.1253227     1.0454830
H           6.7516713    -0.1555526     1.4534127
C           4.6418713    -0.5693054     1.4252277
H           4.7310096    -1.3997205     2.1207174
C           3.3678020    -0.2566269     0.9088569
C           3.2542169     0.8083457    -0.0220016
C           4.4223354     1.5055037    -0.3780916
H           4.3211831     2.3371855    -1.0667275
C           0.4807277    -2.2087802     1.8681378
H          -0.4162011    -2.7674986     1.6375906
N           1.2148170    -1.6003896     0.8790073
C           2.2374630    -1.0162214     1.4840216
N           2.1789893    -1.2477642     2.8400558
H           2.8041254    -0.8510807     3.5266420
C           1.0552984    -1.9999374     3.0967602
H           0.7796279    -2.3016177     4.0959890
C          -0.2241320     2.4516248    -1.8172091
H          -1.0795944     2.9441010    -2.2703196
C           0.7915521     3.2002684    -1.2214581
H           0.7386104     4.2883557    -1.2051216
N           1.8703806     2.6621489    -0.6478352
C           1.9843823     1.3177083    -0.6290351
C           1.0225403     0.4844098    -1.2191076
H           1.1415106    -0.5896874    -1.1860304
C          -0.0949490     1.0647606    -1.8163560
H          -0.8510599     0.4360260    -2.2794090
28
129_C14H11N3_4-6-13-12 (-120,) energy =    -704.3647370
C           5.6943630     1.1618009     0.1260857
H           6.5783955     1.7136926    -0.1817072
C           5.8008788     0.0988095     1.0226414
H           6.7675472    -0.1966348     1.4212756
C           4.6519098    -0.5879827     1.4012934
H           4.7280025    -1.4215677     2.0944343
C           3.3826895    -0.2494196     0.8950887
C           3.2741065     0.8269801    -0.0205614
C           4.4468123     1.5165476    -0.3757388
H           4.3515623     2.3575061    -1.0537056
C           0.5890490    -2.3581923     1.7967606
H          -0.2121621    -3.0409894     1.5484576
N           1.3729116    -1.7933284     0.8182497
C           2.2434199    -1.0199359     1.4474314
N           2.0476407    -1.0908722     2.8062639
H           2.5593166    -0.5605575     3.4968510
C           0.9859495    -1.9362457     3.0406625
H           0.6242513    -2.1456631     4.0360184
C          -0.2346476     2.4722078    -1.7534353
H          -1.0981763     2.9638112    -2.1918830
C           0.8218005     3.2225793    -1.2353583
H           0.7924316     4.3112476    -1.2663985
N           1.9116887     2.6858786    -0.6823816
C           1.9992869     1.3411162    -0.6099786
C           0.9954782     0.5043612    -1.1217499
H           1.0972495    -0.5713003    -1.0542898
C          -0.1347701     1.0841488    -1.6954057
H          -0.9230491     0.4532300    -2.0979708
28
129_C14H11N3_4-6-13-12 (-105,) energy =    -704.3644617
C           5.7295536     1.1268593     0.1125840
H           6.6154029     1.6780228    -0.1915361
C           5.8391857     0.0379949     0.9778041
H           6.8091261    -0.2748771     1.3545620
C           4.6890919    -0.6482326     1.3577501
H           4.7623311    -1.4941397     2.0359290
C           3.4205566    -0.2789736     0.8794220
C           3.3091573     0.8161665    -0.0096879
C           4.4797306     1.5082081    -0.3645795
H           4.3831315     2.3644080    -1.0232188
C           0.6748727    -2.4574671     1.7572413
H          -0.0353652    -3.2382519     1.5209322
N           1.5510394    -1.9804946     0.8088308
C           2.2653111    -1.0457150     1.4132317
N           1.8830425    -0.9227629     2.7257881
H           2.2695616    -0.2646750     3.3872902
C           0.8597761    -1.8167885     2.9562751
H           0.3754389    -1.9037449     3.9171551
C          -0.2508088     2.4204541    -1.6710176
H          -1.1304648     2.8997239    -2.0905498
C           0.8094674     3.1858908    -1.1839979
H           0.7671701     4.2738839    -1.2214571
N           1.9186911     2.6650422    -0.6538838
C           2.0228639     1.3223907    -0.5770799
C           1.0168804     0.4703856    -1.0605638
H           1.1374487    -0.6045590    -1.0019471
C          -0.1336460     1.0335394    -1.6091922
H          -0.9236255     0.3917790    -1.9906090
28
129_C14H11N3_4-6-13-12 (-90,) energy =    -704.3645512
C           5.7686068     1.1036520     0.1074051
H           6.6478410     1.6698078    -0.1883465
C           5.8971289    -0.0224036     0.9216290
H           6.8754877    -0.3443661     1.2676237
C           4.7567664    -0.7277522     1.2981881
H           4.8416223    -1.5961618     1.9454479
C           3.4820013    -0.3420059     0.8572780
C           3.3518478     0.7894895     0.0192879
C           4.5098399     1.5038943    -0.3300731
H           4.3981258     2.3845818    -0.9533692
C           0.7378102    -2.5207733     1.7362690
H           0.1099543    -3.3821320     1.5521892
N           1.7582498    -2.1834409     0.8741116
C           2.3175234    -1.1007070     1.3861317
N           1.6861891    -0.7320424     2.5463220
H           1.9287438     0.0657003     3.1163217
C           0.6717853    -1.6356321     2.7822299
H           0.0257310    -1.5642095     3.6442230
C          -0.2707629     2.3540137    -1.5390106
H          -1.1685425     2.8220098    -1.9318323
C           0.7867812     3.1330986    -1.0684531
H           0.7240188     4.2204413    -1.0923641
N           1.9177538     2.6268376    -0.5700391
C           2.0478569     1.2861838    -0.5127501
C           1.0457946     0.4212253    -0.9829088
H           1.1893455    -0.6521854    -0.9492561
C          -0.1274631     0.9683420    -1.4973631
H          -0.9140721     0.3168642    -1.8689410
28
129_C14H11N3_4-6-13-12 (-75,) energy =    -704.3657007
C           5.7949196     1.0896009     0.0965173
H           6.6700270     1.6614030    -0.2005655
C           5.9374290    -0.0650559     0.8680776
H           6.9222826    -0.4013390     1.1804119
C           4.8038197    -0.7767255     1.2524749
H           4.8968335    -1.6632761     1.8728346
C           3.5219110    -0.3695036     0.8553111
C           3.3765649     0.7873400     0.0552843
C           4.5282643     1.5093478    -0.2982037
H           4.4059397     2.4067178    -0.8951806
C           0.8218548    -2.5734894     1.7775359
H           0.2790678    -3.5039925     1.6790987
N           1.9481303    -2.3212125     1.0255731
C           2.3597458    -1.1190694     1.3919038
N           1.5288454    -0.5894613     2.3457786
H           1.6307434     0.3195818     2.7741302
C           0.5389584    -1.5137143     2.6022472
H          -0.2383359    -1.3372430     3.3304171
C          -0.2820084     2.3236519    -1.4482611
H          -1.1891515     2.7824495    -1.8300930
C           0.7757101     3.1130626    -0.9965171
H           0.7034721     4.1996947    -1.0235208
N           1.9185056     2.6183722    -0.5122844
C           2.0617304     1.2795925    -0.4528529
C           1.0574882     0.4050015    -0.9021147
H           1.2100641    -0.6676469    -0.8675604
C          -0.1274454     0.9387990    -1.4016640
H          -0.9143718     0.2792406    -1.7577982
28
129_C14H11N3_4-6-13-12 (-60,) energy =    -704.3670976
C           5.8058926     1.0744706     0.0811039
H           6.6827932     1.6412117    -0.2201305
C           5.9479097    -0.1048838     0.8155021
H           6.9347493    -0.4649011     1.0932568
C           4.8142773    -0.8089703     1.2114082
H           4.9048117    -1.7116605     1.8077563
C           3.5290931    -0.3679619     0.8616663
C           3.3842640     0.8050278     0.0850131
C           4.5370615     1.5215325    -0.2748820
H           4.4145449     2.4315228    -0.8526880
C           0.9349734    -2.6281756     1.9135138
H           0.4817501    -3.6102694     1.9295863
N           2.1021661    -2.3921495     1.2232195
C           2.3751613    -1.1110254     1.4113421
N           1.4179816    -0.5190402     2.1957852
H           1.4033883     0.4516946     2.4743464
C           0.4885445    -1.4817695     2.5232267
H          -0.3666554    -1.2672205     3.1462683
C          -0.2735901     2.3417733    -1.4193081
H          -1.1806823     2.7987359    -1.8033386
C           0.7664181     3.1324213    -0.9311096
H           0.6800222     4.2182866    -0.9303536
N           1.9092908     2.6401463    -0.4424258
C           2.0692131     1.3026211    -0.4166762
C           1.0814075     0.4273991    -0.9014524
H           1.2480101    -0.6442793    -0.8901948
C          -0.1026107     0.9574951    -1.4052962
H          -0.8760136     0.2977764    -1.7895373
28
129_C14H11N3_4-6-13-12 (-45,) energy =    -704.3681301
C           5.8094818     1.0583195     0.0659205
H           6.6900814     1.6180570    -0.2373566
C           5.9432608    -0.1416045     0.7685248
H           6.9286151    -0.5256281     1.0180913
C           4.8065101    -0.8344914     1.1722558
H           4.8902679    -1.7503489     1.7484156
C           3.5208011    -0.3619934     0.8626560
C           3.3843532     0.8246028     0.1046332
C           4.5416775     1.5318346    -0.2579009
H           4.4239791     2.4536371    -0.8181247
C           1.0564284    -2.6621242     2.1018442
H           0.6962772    -3.6703510     2.2565498
N           2.2396572    -2.4198690     1.4457509
C           2.3771551    -1.1024866     1.4269088
N           1.3178746    -0.4958981     2.0545586
H           1.1947333     0.4992705     2.1744232
C           0.4640539    -1.4846900     2.4892171
H          -0.4495596    -1.2627134     3.0199132
C          -0.2539316     2.4046646    -1.4016764
H          -1.1560951     2.8711959    -1.7857331
C           0.7570228     3.1784323    -0.8326562
H           0.6520067     4.2605912    -0.7672048
N           1.8935262     2.6740132    -0.3393003
C           2.0746889     1.3402194    -0.3930258
C           1.1155256     0.4825444    -0.9603612
H           1.3017366    -0.5851376    -1.0090691
C          -0.0612461     1.0243269    -1.4678259
H          -0.8117562     0.3788696    -1.9163200
28
129_C14H11N3_4-6-13-12 (-30,) energy =    -704.3684672
C           5.7945451     1.0285511     0.0556917
H           6.6779850     1.5797531    -0.2546220
C           5.9200842    -0.1828952     0.7400148
H           6.9031444    -0.5865668     0.9667531
C           4.7811735    -0.8630275     1.1560950
H           4.8589066    -1.7855535     1.7215274
C           3.4950784    -0.3661603     0.8814152
C           3.3667500     0.8263224     0.1297617
C           4.5280659     1.5218098    -0.2419594
H           4.4145628     2.4501985    -0.7924983
C           1.1564907    -2.6715645     2.3241172
H           0.8855540    -3.6735181     2.6287934
N           2.3522945    -2.4133813     1.7030818
C           2.3624744    -1.1095966     1.4592368
N           1.2070728    -0.5271787     1.9196926
H           0.9818643     0.4559697     1.8751416
C           0.4268026    -1.5164896     2.4727580
H          -0.5409989    -1.3101960     2.9045122
C          -0.2418863     2.4705854    -1.3811690
H          -1.1356953     2.9528291    -1.7652777
C           0.7391089     3.2145682    -0.7264745
H           0.6183861     4.2886896    -0.5926456
N           1.8649203     2.6899872    -0.2280848
C           2.0645195     1.3647465    -0.3651102
C           1.1348426     0.5374708    -1.0203354
H           1.3376171    -0.5224680    -1.1327666
C          -0.0308215     1.0994324    -1.5317281
H          -0.7576448     0.4781623    -2.0482613
28
129_C14H11N3_4-6-13-12 (-15,) energy =    -704.3677923
C           5.7815652     0.9995817     0.0199569
H           6.6634420     1.5445169    -0.3053058
C           5.9069080    -0.2133736     0.7014891
H           6.8895617    -0.6278766     0.9098665
C           4.7706005    -0.8837089     1.1365751
H           4.8502684    -1.8055253     1.7020308
C           3.4807457    -0.3758616     0.8923389
C           3.3521388     0.8140646     0.1347908
C           4.5134697     1.4997622    -0.2558440
H           4.3976067     2.4285300    -0.8055371
C           1.2597187    -2.6552258     2.5420090
H           1.0721378    -3.6150756     3.0042296
N           2.4696794    -2.3631665     1.9710426
C           2.3641283    -1.1299767     1.4887514
N           1.1157536    -0.6231681     1.7584019
H           0.7879358     0.3023177     1.5257183
C           0.4003172    -1.5887468     2.4274939
H          -0.6191432    -1.4294740     2.7452585
C          -0.2296132     2.5190559    -1.3778047
H          -1.1153785     3.0166853    -1.7608353
C           0.7288180     3.2321207    -0.6578401
H           0.5977749     4.2971288    -0.4715627
N           1.8438628     2.6878521    -0.1565293
C           2.0559779     1.3724688    -0.3568190
C           1.1499554     0.5770690    -1.0816463
H           1.3638743    -0.4742699    -1.2444251
C          -0.0058381     1.1591212    -1.5948859
H          -0.7135685     0.5626750    -2.1645095
28
129_C14H11N3_4-6-13-12 (0,) energy =    -704.3710154
C           5.5986401     1.4083862     0.4595308
H           6.4162458     2.0962640     0.2634265
C           5.8084790     0.2233243     1.1653489
H           6.7928946    -0.0239925     1.5534410
C           4.7516311    -0.6518650     1.3624732
H           4.9013077    -1.5841886     1.8943841
C           3.4541279    -0.4046410     0.8636856
C           3.2136825     0.8512395     0.2297208
C           4.3163845     1.7073885     0.0195979
H           4.1511468     2.6346121    -0.5206024
C           1.6882962    -3.3611976     1.8320981
H           1.6646426    -4.3172519     2.3383766
N           2.7962089    -2.5651437     1.8672473
C           2.4811489    -1.4676680     1.1758747
N           1.2102672    -1.5676065     0.6805217
H           0.8453919    -0.9174881    -0.0197474
C           0.6915143    -2.7682440     1.0879112
H          -0.3078046    -3.0814551     0.8240552
C          -0.4320849     2.6314369    -1.1000668
H          -1.3541007     3.0554455    -1.4847544
C          -0.1310420     1.2880068    -1.3011510
H          -0.8212689     0.6407100    -1.8391973
N           0.9906252     0.7023609    -0.8617472
C           1.8986144     1.4363027    -0.1874952
C           1.6440893     2.7944422     0.0942517
H           2.3530619     3.3620325     0.6860627
C           0.4771468     3.3931672    -0.3666412
H           0.2769353     4.4385965    -0.1477659
28
129_C14H11N3_4-6-13-12 (15,) energy =    -704.3732917
C           5.6637658     1.3748514     0.4677198
H           6.4854162     2.0599309     0.2786581
C           5.8770131     0.1637204     1.1269360
H           6.8692061    -0.1088693     1.4763261
C           4.8143709    -0.7059218     1.3243553
H           4.9626972    -1.6526160     1.8310426
C           3.5078843    -0.4162235     0.8787933
C           3.2744071     0.8455423     0.2599360
C           4.3772377     1.7007244     0.0574481
H           4.2100775     2.6448280    -0.4527127
C           1.6279006    -3.2511437     1.9860953
H           1.5296027    -4.1295321     2.6103453
N           2.7257970    -2.4417462     2.0636395
C           2.5151081    -1.4606247     1.1854060
N           1.3222528    -1.6409208     0.5424174
H           1.0104790    -1.0304028    -0.2164119
C           0.7428683    -2.7775901     1.0416997
H          -0.2142640    -3.1360306     0.6928593
C          -0.3864488     2.6042201    -1.0414472
H          -1.3132737     3.0237023    -1.4195701
C          -0.0445338     1.2829415    -1.3131176
H          -0.7056990     0.6507031    -1.9030046
N           1.0848007     0.7031114    -0.8856013
C           1.9552920     1.4234354    -0.1495758
C           1.6640115     2.7578692     0.1961519
H           2.3525343     3.3097222     0.8262765
C           0.4892561     3.3504406    -0.2533186
H           0.2577686     4.3778177     0.0146247
28
129_C14H11N3_4-6-13-12 (30,) energy =    -704.3734892
C           5.6971460     1.3669079     0.4537934
H           6.5214019     2.0500753     0.2691207
C           5.9154351     0.1314223     1.0641241
H           6.9149521    -0.1637884     1.3714942
C           4.8473225    -0.7327918     1.2654564
H           4.9984093    -1.6942951     1.7433523
C           3.5333529    -0.4030984     0.8789812
C           3.3037168     0.8635898     0.2762754
C           4.4056227     1.7179474     0.0778073
H           4.2356615     2.6772395    -0.4026817
C           1.5177549    -3.0971164     2.0959902
H           1.3334109    -3.8864088     2.8128415
N           2.6090662    -2.2782027     2.2029585
C           2.5233294    -1.4332086     1.1775298
N           1.4145254    -1.6967819     0.4231203
H           1.1520957    -1.1280174    -0.3832021
C           0.7588421    -2.7547458     0.9983656
H          -0.1538756    -3.1588409     0.5863146
C          -0.3844160     2.5678122    -1.0021906
H          -1.3195618     2.9734205    -1.3749807
C           0.0093078     1.2749940    -1.3358396
H          -0.6188228     0.6539562    -1.9718677
N           1.1510088     0.7125448    -0.9180205
C           1.9777523     1.4264365    -0.1270692
C           1.6398209     2.7321484     0.2754127
H           2.3027447     3.2755166     0.9398506
C           0.4519697     3.3056843    -0.1652426
H           0.1807748     4.3109921     0.1455342
28
129_C14H11N3_4-6-13-12 (45,) energy =    -704.3716615
C           5.7200936     1.3638000     0.4223903
H           6.5443743     2.0468482     0.2368505
C           5.9481453     0.1092448     0.9877353
H           6.9552033    -0.2017014     1.2519750
C           4.8781973    -0.7528688     1.2008022
H           5.0384750    -1.7269153     1.6507132
C           3.5578588    -0.3933681     0.8756804
C           3.3256988     0.8765502     0.2883169
C           4.4218498     1.7336385     0.0845591
H           4.2443851     2.7045466    -0.3698817
C           1.3806360    -2.9277312     2.1658373
H           1.0949949    -3.6158293     2.9505406
N           2.4665338    -2.1010798     2.3029746
C           2.5296096    -1.4102819     1.1695944
N           1.5176461    -1.7646481     0.3212893
H           1.3165499    -1.2529503    -0.5363044
C           0.7704053    -2.7315471     0.9478344
H          -0.0927866    -3.1829236     0.4816801
C          -0.3993767     2.4955303    -0.9737624
H          -1.3452830     2.8780968    -1.3440635
C           0.0550883     1.2379187    -1.3631360
H          -0.5347357     0.6246457    -2.0421134
N           1.2121377     0.7033133    -0.9517353
C           1.9892855     1.4149383    -0.1098355
C           1.5958379     2.6858417     0.3441208
H           2.2293124     3.2249109     1.0405853
C           0.3913693     3.2296994    -0.0908818
H           0.0734415     4.2084468     0.2581273
28
129_C14H11N3_4-6-13-12 (60,) energy =    -704.3683326
C           5.7496833     1.3897099     0.3658601
H           6.5733084     2.0727069     0.1768343
C           5.9882097     0.1161445     0.8813832
H           7.0018814    -0.2093242     1.0984787
C           4.9179787    -0.7446327     1.1083329
H           5.0881760    -1.7321545     1.5253630
C           3.5927982    -0.3586225     0.8487562
C           3.3539474     0.9185883     0.2875559
C           4.4444344     1.7786300     0.0757681
H           4.2592665     2.7607710    -0.3508910
C           1.2379848    -2.7207787     2.1716553
H           0.8413584    -3.2986769     2.9959780
N           2.3147913    -1.8837609     2.3412128
C           2.5429053    -1.3591606     1.1449108
N           1.6463512    -1.8234134     0.2213203
H           1.5140319    -1.3776682    -0.6818215
C           0.7960585    -2.6881175     0.8702757
H          -0.0074192    -3.1960922     0.3579234
C          -0.4204104     2.4385513    -0.9320602
H          -1.3811515     2.7927638    -1.2924903
C           0.0913030     1.2182217    -1.3685332
H          -0.4682017     0.6089061    -2.0763110
N           1.2686069     0.7186129    -0.9722157
C           2.0048025     1.4321980    -0.0960949
C           1.5596951     2.6676702     0.4016205
H           2.1685644     3.2065729     1.1201230
C           0.3341072     3.1747955    -0.0199152
H          -0.0273659     4.1259716     0.3614354
28
129_C14H11N3_4-6-13-12 (75,) energy =    -704.3657009
C           5.8568040     1.2791040    -0.1888472
H           6.6980079     1.8397114    -0.5877772
C           6.0749776     0.1656738     0.6245009
H           7.0859534    -0.1520768     0.8643598
C           4.9850344    -0.5496384     1.1140631
H           5.1392809    -1.4320137     1.7281361
C           3.6700952    -0.1554364     0.8271279
C           3.4461502     0.9848603     0.0216699
C           4.5572108     1.6767687    -0.4877633
H           4.3763087     2.5384772    -1.1212658
C           1.0752474    -2.0459466     2.4671966
H           0.5253100    -2.3348158     3.3527885
N           2.1202398    -1.1510545     2.5360421
C           2.5667923    -1.0283810     1.2973838
N           1.8363959    -1.8069241     0.4364938
H           1.9795540    -1.8732390    -0.5611747
C           0.8769370    -2.4650750     1.1755513
H           0.1764367    -3.1529250     0.7264326
C          -0.3440555     2.5864206    -1.0156045
H          -1.2848579     3.0195128    -1.3420094
C           0.7536962     2.5442428    -1.8753541
H           0.6788468     2.9475512    -2.8845268
N           1.9391057     2.0251338    -1.5428875
C           2.0873199     1.5092388    -0.3066878
C           1.0430400     1.5237180     0.6337992
H           1.1980657     1.1256937     1.6301059
C          -0.1857789     2.0669876     0.2685197
H          -1.0044483     2.0913163     0.9828593
28
129_C14H11N3_4-6-13-12 (90,) energy =    -704.3645515
C           5.8280138     1.2727280    -0.2083282
H           6.6735102     1.8308592    -0.6016211
C           6.0369536     0.1273054     0.5609948
H           7.0449336    -0.2176090     0.7744616
C           4.9397836    -0.5799052     1.0466601
H           5.0886470    -1.4825032     1.6326870
C           3.6274543    -0.1516615     0.7965286
C           3.4147101     1.0176256     0.0305025
C           4.5319771     1.7045954    -0.4726691
H           4.3587089     2.5868285    -1.0794921
C           0.9841155    -1.9975402     2.4258154
H           0.3406194    -2.1901952     3.2736542
N           1.9138854    -0.9810546     2.4508504
C           2.5212869    -1.0213575     1.2775017
N           2.0090455    -2.0288504     0.5008972
H           2.3071864    -2.2542807    -0.4374163
C           1.0230624    -2.6629092     1.2267909
H           0.4661447    -3.4997429     0.8330256
C          -0.3454562     2.6846401    -1.0090529
H          -1.2780296     3.1325031    -1.3393011
C           0.7538032     2.6229105    -1.8661675
H           0.6888440     3.0260122    -2.8761727
N           1.9289495     2.0850359    -1.5292583
C           2.0641411     1.5672165    -0.2918737
C           1.0201435     1.6031134     0.6473298
H           1.1662917     1.2033681     1.6437405
C          -0.1986796     2.1664866     0.2763744
H          -1.0184717     2.2068160     0.9888065
28
129_C14H11N3_4-6-13-12 (105,) energy =    -704.3644612
C           5.7978220     1.2730824    -0.2278283
H           6.6496639     1.8329181    -0.6045947
C           5.9914618     0.0925456     0.4899096
H           6.9937238    -0.2792312     0.6844799
C           4.8840721    -0.6100284     0.9568676
H           5.0231556    -1.5337798     1.5120287
C           3.5748155    -0.1510748     0.7344962
C           3.3770837     1.0537835     0.0193060
C           4.5072965     1.7370439    -0.4612212
H           4.3467370     2.6441808    -1.0335460
C           0.9268540    -1.9913337     2.3649695
H           0.1958582    -2.1138827     3.1527248
N           1.7060478    -0.8595308     2.2838071
C           2.4772979    -1.0257060     1.2221997
N           2.2257169    -2.2384036     0.6305701
H           2.6769249    -2.5868237    -0.2031483
C           1.2301166    -2.8633446     1.3500947
H           0.8425123    -3.8327856     1.0756127
C          -0.3281678     2.8402173    -1.0233331
H          -1.2446013     3.3193375    -1.3551517
C           0.7756971     2.7553382    -1.8727739
H           0.7306944     3.1713774    -2.8786569
N           1.9313957     2.1796638    -1.5326901
C           2.0414391     1.6425608    -0.3002786
C           0.9919212     1.6984764     0.6308822
H           1.1166908     1.2745147     1.6199086
C          -0.2066498     2.3025507     0.2562068
H          -1.0309888     2.3577128     0.9624783
28
129_C14H11N3_4-6-13-12 (120,) energy =    -704.3647364
C           5.7574400     1.2394771    -0.2235208
H           6.6093108     1.7992994    -0.6000319
C           5.9465456     0.0368528     0.4568739
H           6.9459982    -0.3546278     0.6256374
C           4.8374073    -0.6600896     0.9252979
H           4.9768982    -1.5946845     1.4621140
C           3.5266472    -0.1797118     0.7439272
C           3.3335861     1.0451335     0.0575041
C           4.4685883     1.7231648    -0.4209084
H           4.3110798     2.6444429    -0.9707558
C           0.8268953    -2.0110556     2.3005412
H           0.0050974    -2.0927789     2.9989579
N           1.5164509    -0.8314657     2.1451578
C           2.4432017    -1.0666409     1.2298975
N           2.3756852    -2.3736663     0.8092856
H           2.9493055    -2.7834421     0.0860857
C           1.3394081    -2.9842823     1.4801950
H           1.0725424    -4.0166976     1.3119607
C          -0.3213027     2.9339643    -0.9890780
H          -1.2219465     3.4406495    -1.3233051
C           0.7793440     2.8093055    -1.8379289
H           0.7474362     3.2208444    -2.8462089
N           1.9160735     2.1998311    -1.4942106
C           2.0094184     1.6643101    -0.2589982
C           0.9616742     1.7569470     0.6702071
H           1.0686810     1.3221423     1.6558546
C          -0.2170731     2.3974510     0.2920776
H          -1.0399283     2.4800728     0.9974748
28
129_C14H11N3_4-6-13-12 (135,) energy =    -704.3643822
C           5.7354900     1.2337158    -0.2423437
H           6.5817393     1.7969150    -0.6261337
C           5.9321118     0.0242689     0.4233624
H           6.9331189    -0.3700297     0.5756083
C           4.8295302    -0.6753034     0.9002821
H           4.9822285    -1.6090869     1.4350658
C           3.5129985    -0.1953804     0.7458708
C           3.3136847     1.0381598     0.0733246
C           4.4436502     1.7186871    -0.4137478
H           4.2790422     2.6451766    -0.9528953
C           0.7259898    -2.0344118     2.1311491
H          -0.1896368    -2.0970875     2.7034241
N           1.3647942    -0.8334408     1.9380703
C           2.4408437    -1.0992642     1.2139264
N           2.5099284    -2.4486075     0.9485544
H           3.1962626    -2.8913051     0.3548123
C           1.4143506    -3.0532335     1.5218253
H           1.2344647    -4.1147147     1.4420299
C          -0.3166262     2.9874276    -0.9478051
H          -1.2106155     3.5088895    -1.2772372
C           0.7513426     2.7876535    -1.8233210
H           0.7008926     3.1542544    -2.8480394
N           1.8789074     2.1572854    -1.4860594
C           1.9928892     1.6726144    -0.2319051
C           0.9790543     1.8417232     0.7227336
H           1.0996092     1.4403935     1.7194210
C          -0.1891325     2.5056473     0.3528643
H          -0.9860426     2.6471859     1.0783452
28
129_C14H11N3_4-6-13-12 (150,) energy =    -704.3633642
C           5.7244728     1.2271748    -0.2565156
H           6.5651953     1.7946041    -0.6459074
C           5.9307216     0.0235556     0.4167524
H           6.9349237    -0.3613446     0.5719955
C           4.8352296    -0.6843344     0.8959656
H           5.0053896    -1.6089010     1.4414444
C           3.5119774    -0.2212615     0.7393067
C           3.3055962     1.0140605     0.0714192
C           4.4277025     1.7010965    -0.4225663
H           4.2538331     2.6270732    -0.9603192
C           0.6236693    -2.0624636     1.8860946
H          -0.3775840    -2.1146418     2.2918484
N           1.2360228    -0.8560918     1.6542866
C           2.4393338    -1.1349145     1.1770205
N           2.6095875    -2.5011639     1.1004502
H           3.3958424    -2.9706418     0.6760244
C           1.4527667    -3.1007565     1.5425128
H           1.3352062    -4.1736037     1.5702203
C          -0.3212033     3.0026470    -0.8744249
H          -1.2168493     3.5333230    -1.1841354
C           0.6828523     2.7078573    -1.7965695
H           0.5807604     3.0080196    -2.8388108
N           1.8108478     2.0630445    -1.4844414
C           1.9828562     1.6563004    -0.2110784
C           1.0355576     1.9216807     0.7882369
H           1.2066146     1.5858762     1.8011960
C          -0.1294217     2.6043513     0.4471776
H          -0.8749165     2.8229085     1.2072541
28
129_C14H11N3_4-6-13-12 (165,) energy =    -704.3618956
C           5.7171553     1.2329022    -0.2930613
H           6.5531274     1.8058429    -0.6843555
C           5.9319381     0.0385291     0.3935358
H           6.9391193    -0.3338794     0.5594238
C           4.8424386    -0.6798697     0.8690084
H           5.0336074    -1.5949662     1.4229932
C           3.5128607    -0.2398985     0.6982623
C           3.2998389     0.9950703     0.0301992
C           4.4155455     1.6909995    -0.4645707
H           4.2324609     2.6149970    -1.0029210
C           0.5570315    -2.0932126     1.6238341
H          -0.5004125    -2.1531919     1.8431889
N           1.1530953    -0.8982197     1.3137482
C           2.4370104    -1.1578252     1.1153346
N           2.6724146    -2.5063646     1.2909489
H           3.5353378    -2.9889161     1.0911179
C           1.4781808    -3.1105066     1.6086378
H           1.4025306    -4.1723494     1.7887885
C          -0.3123567     3.0462281    -0.8263434
H          -1.2042152     3.5970739    -1.1107349
C           0.6462372     2.7085259    -1.7800734
H           0.5122488     2.9932153    -2.8229494
N           1.7701031     2.0399310    -1.4987891
C           1.9771601     1.6493727    -0.2278882
C           1.0740388     1.9531788     0.8010721
H           1.2766937     1.6310517     1.8138043
C          -0.0818240     2.6641032     0.4950642
H          -0.7922681     2.9153749     1.2782288
28
129_C14H11N3_4-6-13-12 (180,) energy =    -704.3609053
C           5.7149386     1.2452815    -0.2936588
H           6.5475947     1.8405619    -0.6575632
C           5.9375632     0.0385188     0.3675141
H           6.9475802    -0.3243436     0.5370168
C           4.8532355    -0.7125104     0.8034788
H           5.0634527    -1.6548945     1.3011263
C           3.5194201    -0.2950879     0.6164692
C           3.2988515     0.9594120    -0.0121140
C           4.4081402     1.6854620    -0.4740520
H           4.2167434     2.6237763    -0.9842095
C           0.5221607    -2.1495974     1.3749215
H          -0.5552593    -2.2405050     1.4035200
N           1.1288516    -1.0083520     0.9223001
C           2.4353589    -1.2108545     1.0149606
N           2.6747221    -2.4706072     1.5246764
H           3.5723779    -2.9092954     1.6586042
C           1.4614356    -3.0766684     1.7529893
H           1.3874483    -4.0774580     2.1513608
C          -0.3129091     3.0682287    -0.7097817
H          -1.2050165     3.6391886    -0.9501634
C           0.6101387     2.7459370    -1.7015654
H           0.4483474     3.0621788    -2.7312571
N           1.7347276     2.0553698    -1.4748983
C           1.9731909     1.6256464    -0.2248322
C           1.1057574     1.9099928     0.8405187
H           1.3370125     1.5560805     1.8380551
C          -0.0475816     2.6443120     0.5935982
H          -0.7306078     2.8818127     1.4050108
