29
179_C11H15NO2_1-0-5-6 (-165,) energy =    -633.3924534
N           1.7934028    -1.3801591    -0.2289227
C           0.6851040    -1.9730730    -0.9698011
H           1.0010559    -2.9088082    -1.4527850
H           0.3549411    -1.2694879    -1.7323254
H          -0.1415616    -2.1976356    -0.2861490
C           2.4784933    -0.3519451    -0.8214656
C           3.8615620     0.0903574    -0.2640933
O           3.9080079     0.3127883     1.1365008
C           3.1401190     1.4302810     1.5550009
H           3.2947838     1.5308914     2.6319205
H           2.0685297     1.2877449     1.3562682
H           3.4717901     2.3508871     1.0530584
H           4.0390363     1.0429107    -0.7848258
O           2.0795521     0.2057969    -1.8432682
C           2.3078542    -2.2082319     0.8570550
H           2.7296681    -3.1473069     0.4716624
H           1.4827084    -2.4576135     1.5349455
H           3.0693246    -1.6729538     1.4178230
C           6.9794634    -2.6678923    -1.4589504
H           7.7647943    -3.3532280    -1.7666373
C           6.9145491    -2.2197993    -0.1396852
H           7.6514314    -2.5542680     0.5861636
C           5.9072499    -1.3376133     0.2583907
H           5.8616034    -0.9818755     1.2814220
C           4.9511088    -0.8986637    -0.6628926
C           5.0225399    -1.3467565    -1.9896764
H           4.2876172    -1.0002822    -2.7113428
C           6.0301055    -2.2259888    -2.3835015
H           6.0741914    -2.5644660    -3.4153889
29
179_C11H15NO2_1-0-5-6 (-150,) energy =    -633.3892586
N           1.7907860    -1.3598656    -0.2166289
C           0.8890121    -2.1104993    -1.0863790
H           1.4057641    -2.9879783    -1.5014502
H           0.5608418    -1.4628658    -1.8979236
H           0.0183972    -2.4559767    -0.5175996
C           2.4447826    -0.2818862    -0.7626578
C           3.8505548     0.1393606    -0.2392430
O           3.9430273     0.3749783     1.1573867
C           3.2090521     1.5126837     1.5824686
H           3.3952788     1.6239153     2.6532889
H           2.1295407     1.3889340     1.4146464
H           3.5437753     2.4201141     1.0591493
H           4.0359653     1.0823302    -0.7739615
O           2.0319557     0.2934227    -1.7682145
C           2.2985286    -2.1335713     0.9130523
H           2.8608686    -3.0153680     0.5738385
H           1.4485043    -2.4799864     1.5128155
H           2.9425023    -1.5182205     1.5365537
C           6.8517859    -2.7175519    -1.4960394
H           7.6079845    -3.4278209    -1.8197112
C           6.8086741    -2.2929355    -0.1681130
H           7.5335388    -2.6708894     0.5484098
C           5.8389136    -1.3788101     0.2506802
H           5.8108556    -1.0408609     1.2802711
C           4.8995447    -0.8830212    -0.6588945
C           4.9489315    -1.3080910    -1.9943051
H           4.2263798    -0.9183283    -2.7064843
C           5.9185969    -2.2198529    -2.4086772
H           5.9463900    -2.5394920    -3.4471025
29
179_C11H15NO2_1-0-5-6 (-135,) energy =    -633.3840092
N           1.7807757    -1.3532943    -0.1881206
C           1.1251816    -2.2341607    -1.1539531
H           1.8227732    -3.0178338    -1.4845212
H           0.8021259    -1.6434998    -2.0102091
H           0.2522537    -2.7129937    -0.6964347
C           2.4066551    -0.2307568    -0.6916078
C           3.8323793     0.1796156    -0.2052416
O           3.9700303     0.4247112     1.1858438
C           3.2696949     1.5803618     1.6188660
H           3.4849234     1.6975671     2.6835778
H           2.1837164     1.4769395     1.4791450
H           3.6079649     2.4764826     1.0786072
H           4.0167899     1.1147504    -0.7535179
O           1.9742678     0.3562362    -1.6804284
C           2.2677899    -2.0600945     0.9947677
H           2.9566391    -2.8747198     0.7274743
H           1.4096035    -2.4958759     1.5198027
H           2.7818518    -1.3730769     1.6631946
C           6.7294341    -2.7530580    -1.5254461
H           7.4593956    -3.4830353    -1.8650329
C           6.6940636    -2.3657517    -0.1859143
H           7.3984557    -2.7925229     0.5235497
C           5.7581785    -1.4264450     0.2538450
H           5.7367127    -1.1165914     1.2923309
C           4.8465233    -0.8667968    -0.6468651
C           4.8881278    -1.2548197    -1.9939051
H           4.1863515    -0.8166120    -2.6988358
C           5.8232994    -2.1925794    -2.4290176
H           5.8462157    -2.4827552    -3.4761532
29
179_C11H15NO2_1-0-5-6 (-120,) energy =    -633.3772517
N           1.7568334    -1.3374566    -0.1760734
C           1.3813044    -2.3409576    -1.1754397
H           2.2249860    -3.0182175    -1.3746393
H           1.0886607    -1.8356999    -2.0957338
H           0.5335871    -2.9317443    -0.8110365
C           2.3802164    -0.1950708    -0.6631608
C           3.8203678     0.2068600    -0.2039773
O           3.9936220     0.4466729     1.1827450
C           3.3365482     1.6223734     1.6278469
H           3.5760454     1.7348446     2.6879095
H           2.2448876     1.5512691     1.5100966
H           3.6891325     2.5080911     1.0795044
H           4.0048762     1.1388888    -0.7573366
O           1.9457138     0.3845971    -1.6527409
C           2.1794385    -1.9462597     1.0855547
H           3.0029296    -2.6629207     0.9476746
H           1.3249148    -2.4843288     1.5118198
H           2.5037937    -1.1828061     1.7894016
C           6.6320740    -2.7799894    -1.5849176
H           7.3405679    -3.5238430    -1.9394915
C           6.5829024    -2.4456179    -0.2315654
H           7.2552208    -2.9276580     0.4735623
C           5.6746284    -1.4886085     0.2274333
H           5.6440319    -1.2179586     1.2765326
C           4.8056246    -0.8568019    -0.6681943
C           4.8609349    -1.1923450    -2.0286688
H           4.1907183    -0.7000108    -2.7285956
C           5.7681985    -2.1484682    -2.4829654
H           5.8028449    -2.3969918    -3.5404035
29
179_C11H15NO2_1-0-5-6 (-105,) energy =    -633.3697800
N           1.7200646    -1.2767748    -0.1555172
C           1.6497360    -2.4204495    -1.0738738
H           2.5737072    -3.0158865    -1.0388640
H           1.4879740    -2.0558690    -2.0891841
H           0.8053539    -3.0613242    -0.7961105
C           2.3917193    -0.1539125    -0.6634840
C           3.8349978     0.2257609    -0.1941226
O           4.0165609     0.4039923     1.1978145
C           3.4144907     1.5891223     1.6880421
H           3.6516572     1.6474326     2.7530451
H           2.3206040     1.5772844     1.5633441
H           3.8112346     2.4796696     1.1786125
H           4.0364159     1.1733105    -0.7147653
O           1.9958851     0.3926401    -1.6830996
C           1.9857439    -1.7122086     1.2178458
H           2.9426021    -2.2430754     1.3300630
H           1.1796995    -2.3938862     1.5122148
H           1.9764138    -0.8625490     1.8996293
C           6.5897939    -2.7664779    -1.6793536
H           7.2842152    -3.5116045    -2.0582284
C           6.4987564    -2.5239346    -0.3087292
H           7.1247371    -3.0785168     0.3856249
C           5.6090190    -1.5650901     0.1816522
H           5.5497269    -1.3621306     1.2446810
C           4.7997463    -0.8401964    -0.6998442
C           4.8965255    -1.0844578    -2.0770677
H           4.2692608    -0.5233024    -2.7646879
C           5.7861837    -2.0414795    -2.5627772
H           5.8535768    -2.2185648    -3.6329198
29
179_C11H15NO2_1-0-5-6 (-90,) energy =    -633.3722180
N           1.5074105    -1.4179870    -0.0747037
C           1.7268726    -2.3390573     1.0575361
H           0.8870363    -2.2575966     1.7545360
H           2.6408015    -2.0580847     1.5881537
H           1.8094752    -3.3829060     0.7196263
C           2.6373397    -1.3519081    -0.9319394
C           3.6923028    -0.2639803    -0.5823863
O           3.4266783     0.4001179     0.6337453
C           2.5314601     1.4948420     0.5309791
H           2.4676092     1.9387102     1.5278140
H           1.5320725     1.1714358     0.2164285
H           2.9111322     2.2520417    -0.1721399
H           3.6096936     0.4402705    -1.4266303
O           2.6773247    -1.8995806    -2.0178589
C           0.2967244    -1.8257838    -0.8089929
H          -0.5556694    -1.7290621    -0.1291741
H           0.3458687    -2.8593328    -1.1787079
H           0.1453062    -1.1639169    -1.6645899
C           7.7251531    -1.8574069    -0.5085352
H           8.7363498    -2.2555471    -0.4913468
C           7.1834226    -1.2638996     0.6314503
H           7.7715067    -1.1972167     1.5433606
C           5.8856852    -0.7482797     0.6100260
H           5.4679940    -0.2752357     1.4911229
C           5.1142075    -0.8247698    -0.5544623
C           5.6629474    -1.4189620    -1.6994541
H           5.0670629    -1.4907311    -2.6029825
C           6.9595571    -1.9317883    -1.6740905
H           7.3725450    -2.3884708    -2.5698493
29
179_C11H15NO2_1-0-5-6 (-75,) energy =    -633.3800526
N           1.5813941    -1.4142517    -0.1271794
C           1.9727592    -2.2916648     0.9900453
H           1.1870576    -2.2778074     1.7517794
H           2.8965227    -1.9257742     1.4427440
H           2.1188013    -3.3276694     0.6511107
C           2.6055394    -1.1406056    -1.0452812
C           3.6981061    -0.1324539    -0.5897752
O           3.4173372     0.4907814     0.6443633
C           2.4828004     1.5546281     0.5662418
H           2.4127637     1.9814412     1.5699504
H           1.4917108     1.2016976     0.2555959
H           2.8272494     2.3339259    -0.1304663
H           3.7025321     0.6147300    -1.3994413
O           2.5433183    -1.4550731    -2.2232416
C           0.3586159    -1.9160351    -0.7707522
H          -0.4359122    -1.9342622    -0.0184050
H           0.4819999    -2.9257840    -1.1866392
H           0.0709670    -1.2472286    -1.5837304
C           7.6210215    -1.9760771    -0.4204171
H           8.6049688    -2.4360961    -0.3816275
C           7.1175652    -1.2969666     0.6887346
H           7.7088011    -1.2247987     1.5981791
C           5.8545770    -0.7020783     0.6397254
H           5.4667679    -0.1644235     1.4971059
C           5.0799090    -0.7853045    -0.5221031
C           5.5901805    -1.4662491    -1.6366355
H           4.9913486    -1.5363224    -2.5390823
C           6.8521769    -2.0567170    -1.5837230
H           7.2357214    -2.5801169    -2.4557588
29
179_C11H15NO2_1-0-5-6 (-60,) energy =    -633.3863076
N           1.6210736    -1.4800875    -0.2251463
C           2.0959395    -2.2594676     0.9266934
H           1.3175903    -2.2771455     1.6963590
H           2.9873945    -1.7977130     1.3503698
H           2.3241551    -3.2949220     0.6353750
C           2.5659740    -1.0308721    -1.1391894
C           3.6823869    -0.0877861    -0.6117115
O           3.3915280     0.5061401     0.6362611
C           2.4360972     1.5526994     0.5727872
H           2.3539829     1.9611040     1.5831195
H           1.4526735     1.1862174     0.2519742
H           2.7657974     2.3495551    -0.1107523
H           3.7428829     0.6880993    -1.3911069
O           2.4428210    -1.1790391    -2.3479667
C           0.4320946    -2.0791444    -0.8395237
H          -0.3415547    -2.1696761    -0.0708334
H           0.6355013    -3.0741685    -1.2601540
H           0.0743056    -1.4375186    -1.6454357
C           7.5260410    -2.0867982    -0.4149546
H           8.4911717    -2.5845416    -0.3705056
C           7.0605853    -1.3563146     0.6781018
H           7.6628649    -1.2813297     1.5800295
C           5.8216985    -0.7132829     0.6223453
H           5.4633058    -0.1371910     1.4676121
C           5.0330568    -0.7999124    -0.5298109
C           5.5055803    -1.5321772    -1.6284630
H           4.8983016    -1.5993637    -2.5259520
C           6.7439039    -2.1701858    -1.5692370
H           7.0983360    -2.7332563    -2.4287659
29
179_C11H15NO2_1-0-5-6 (-45,) energy =    -633.3904076
N           1.6685431    -1.5368132    -0.2956204
C           2.1666979    -2.2064065     0.9089132
H           1.3655450    -2.2493446     1.6545058
H           3.0012766    -1.6524651     1.3332241
H           2.4858910    -3.2340526     0.6830322
C           2.5368179    -0.9330963    -1.1815304
C           3.6750677    -0.0422609    -0.6144757
O           3.3870201     0.5413720     0.6412686
C           2.4173832     1.5755196     0.5857935
H           2.3324988     1.9780966     1.5981569
H           1.4373768     1.1981998     0.2653369
H           2.7327722     2.3792511    -0.0961435
H           3.7738547     0.7472791    -1.3755907
O           2.3652363    -0.9572114    -2.3960843
C           0.5247078    -2.2160153    -0.9047667
H          -0.2492703    -2.3456384    -0.1418415
H           0.7974147    -3.2032710    -1.3044816
H           0.1384430    -1.6120155    -1.7255747
C           7.4493894    -2.1670463    -0.4211832
H           8.3981109    -2.6955803    -0.3794468
C           7.0230080    -1.3996581     0.6626088
H           7.6400073    -1.3265044     1.5546577
C           5.8051123    -0.7175825     0.6100135
H           5.4770943    -0.1139161     1.4484877
C           4.9980303    -0.8019623    -0.5294899
C           5.4315485    -1.5708617    -1.6191330
H           4.8123536    -1.6337347    -2.5091283
C           6.6492198    -2.2477463    -1.5631484
H           6.9733386    -2.8391153    -2.4155641
29
179_C11H15NO2_1-0-5-6 (-30,) energy =    -633.3925699
N           1.7047239    -1.5988042    -0.3466867
C           2.1854995    -2.1646001     0.9122294
H           1.3519590    -2.2248443     1.6211983
H           2.9587343    -1.5347730     1.3439845
H           2.5813074    -3.1788687     0.7595119
C           2.4912585    -0.8554174    -1.1915693
C           3.6481150    -0.0031392    -0.6036859
O           3.3698489     0.5769664     0.6580769
C           2.3936005     1.6053353     0.6098374
H           2.3110987     2.0056360     1.6232325
H           1.4136572     1.2234956     0.2928166
H           2.6990931     2.4115638    -0.0733781
H           3.7701913     0.7935954    -1.3532805
O           2.2740067    -0.7780813    -2.3987674
C           0.6048415    -2.3384714    -0.9597450
H          -0.1912736    -2.4685285    -0.2193803
H           0.9280072    -3.3307933    -1.3060437
H           0.2306654    -1.7806167    -1.8172944
C           7.3670238    -2.2219979    -0.4342224
H           8.3028537    -2.7734668    -0.3992347
C           6.9754259    -1.4322660     0.6467362
H           7.6067111    -1.3645767     1.5291610
C           5.7741415    -0.7208280     0.6035749
H           5.4728601    -0.1005649     1.4400738
C           4.9490467    -0.7980853    -0.5233580
C           5.3482078    -1.5889230    -1.6103335
H           4.7161064    -1.6441778    -2.4920767
C           6.5492691    -2.2955602    -1.5641630
H           6.8466033    -2.9040248    -2.4142941
29
179_C11H15NO2_1-0-5-6 (-15,) energy =    -633.3933070
N           1.7609522    -1.5886715    -0.3627860
C           2.1728874    -2.0473172     0.9588450
H           1.2983423    -2.0774966     1.6201849
H           2.9066621    -1.3720863     1.3893590
H           2.5948754    -3.0607757     0.9042997
C           2.4768209    -0.7391611    -1.1631001
C           3.6511811     0.0841434    -0.5657173
O           3.3866957     0.6699555     0.6979619
C           2.4182389     1.7056018     0.6509289
H           2.3408548     2.1079277     1.6638818
H           1.4341241     1.3318054     0.3357166
H           2.7272280     2.5080269    -0.0349561
H           3.7910102     0.8809646    -1.3115319
O           2.2280932    -0.5903071    -2.3589907
C           0.6896000    -2.3620832    -0.9793666
H          -0.1654094    -2.4112003    -0.2954985
H           1.0182892    -3.3879651    -1.1986632
H           0.3976929    -1.8804054    -1.9113475
C           7.3129520    -2.2252537    -0.4148147
H           8.2351073    -2.7995975    -0.3854271
C           6.9374953    -1.4423383     0.6767125
H           7.5678422    -1.4029875     1.5615122
C           5.7537685    -0.7014094     0.6411936
H           5.4656161    -0.0856209     1.4856513
C           4.9308576    -0.7424457    -0.4888701
C           5.3140283    -1.5263292    -1.5865589
H           4.6827780    -1.5526697    -2.4705388
C           6.4971932    -2.2626161    -1.5481515
H           6.7824445    -2.8654113    -2.4064148
29
179_C11H15NO2_1-0-5-6 (0,) energy =    -633.3930469
N           1.8314484    -1.6137838    -0.3767707
C           2.1587403    -1.9855324     0.9930612
H           1.2545918    -1.9346606     1.6142865
H           2.9013334    -1.3127743     1.4113305
H           2.5374404    -3.0160550     1.0286154
C           2.4643756    -0.6632016    -1.1292581
C           3.6557759     0.1367708    -0.5299058
O           3.4065730     0.7171921     0.7406075
C           2.4475146     1.7619423     0.7054670
H           2.3755961     2.1556001     1.7221934
H           1.4588698     1.4011572     0.3880491
H           2.7614540     2.5674089     0.0255557
H           3.8023588     0.9383896    -1.2687250
O           2.1696538    -0.4439948    -2.3042860
C           0.7695018    -2.3968513    -0.9946644
H          -0.1501053    -2.3237351    -0.4000487
H           1.0587932    -3.4549012    -1.0523807
H           0.5929435    -2.0139224    -1.9985414
C           7.2804122    -2.2306197    -0.4245630
H           8.1933943    -2.8199000    -0.4073476
C           6.9257079    -1.4519105     0.6767351
H           7.5631630    -1.4305658     1.5570302
C           5.7536324    -0.6919062     0.6567222
H           5.4818985    -0.0791703     1.5088526
C           4.9216576    -0.7101340    -0.4670872
C           5.2844729    -1.4894817    -1.5747828
H           4.6469340    -1.4977628    -2.4549175
C           6.4558450    -2.2446055    -1.5522445
H           6.7252490    -2.8438836    -2.4180284
29
179_C11H15NO2_1-0-5-6 (15,) energy =    -633.3920215
N           1.9020606    -1.7005737    -0.3909052
C           2.1187677    -1.9653384     1.0250701
H           1.1960274    -1.7755376     1.5919410
H           2.9046959    -1.3314334     1.4246214
H           2.3937824    -3.0179977     1.1677840
C           2.4469658    -0.6698001    -1.1083724
C           3.6463015     0.1323283    -0.5238578
O           3.4104325     0.7150180     0.7487155
C           2.4516203     1.7599641     0.7203127
H           2.3883107     2.1553173     1.7369374
H           1.4597195     1.4001238     0.4111116
H           2.7594095     2.5640098     0.0359429
H           3.7824632     0.9333496    -1.2652122
O           2.1048607    -0.4156789    -2.2630241
C           0.8414957    -2.4870982    -1.0078936
H          -0.1287401    -2.2762218    -0.5366393
H           1.0575132    -3.5556650    -0.8868839
H           0.7897766    -2.2356748    -2.0659426
C           7.2701717    -2.2349804    -0.4609683
H           8.1829305    -2.8248275    -0.4548957
C           6.9141639    -1.4801886     0.6562555
H           7.5502943    -1.4777264     1.5377769
C           5.7422988    -0.7192481     0.6507404
H           5.4704586    -0.1233275     1.5146906
C           4.9122650    -0.7133314    -0.4743439
C           5.2765220    -1.4688444    -1.5978538
H           4.6393939    -1.4591117    -2.4785336
C           6.4473710    -2.2245062    -1.5902441
H           6.7179792    -2.8051592    -2.4682637
29
179_C11H15NO2_1-0-5-6 (30,) energy =    -633.3901720
N           1.9763691    -1.8357330    -0.3875522
C           2.0659262    -2.0072882     1.0586665
H           1.1119648    -1.7436193     1.5391485
H           2.8480707    -1.3781032     1.4751906
H           2.2851472    -3.0561422     1.2898402
C           2.4257029    -0.7321107    -1.0688120
C           3.6365084     0.0736231    -0.5090878
O           3.4182763     0.6611604     0.7654285
C           2.4626723     1.7090538     0.7455717
H           2.4128793     2.1077162     1.7616659
H           1.4655844     1.3525052     0.4488939
H           2.7644141     2.5099450     0.0548205
H           3.7599656     0.8725537    -1.2549482
O           2.0222552    -0.4478455    -2.1950693
C           0.9339372    -2.6338228    -1.0248635
H          -0.0709991    -2.3017103    -0.7258277
H           1.0566188    -3.6804638    -0.7262471
H           1.0232976    -2.5403267    -2.1061175
C           7.2598304    -2.2927159    -0.4909703
H           8.1726563    -2.8824575    -0.4965475
C           6.9043296    -1.5597658     0.6406786
H           7.5408522    -1.5743067     1.5218009
C           5.7325055    -0.7984522     0.6503323
H           5.4616375    -0.2183112     1.5252067
C           4.9022792    -0.7709537    -0.4738917
C           5.2661631    -1.5049358    -1.6116107
H           4.6279949    -1.4791757    -2.4914881
C           6.4366639    -2.2605608    -1.6198316
H           6.7069226    -2.8242036    -2.5089731
29
179_C11H15NO2_1-0-5-6 (45,) energy =    -633.3871677
N           2.0398663    -1.9081631    -0.3539718
C           1.9029642    -1.9203413     1.1021564
H           0.8858048    -1.6249711     1.4013690
H           2.6164136    -1.2354342     1.5557977
H           2.0886230    -2.9326825     1.4773487
C           2.4388769    -0.7908767    -1.0557154
C           3.6506475     0.0431385    -0.5342483
O           3.4723755     0.6403555     0.7418293
C           2.5120553     1.6835957     0.7416744
H           2.4948273     2.0962259     1.7532436
H           1.5066267     1.3185787     0.4843826
H           2.7858343     2.4761913     0.0301257
H           3.7451555     0.8359108    -1.2905302
O           2.0401133    -0.5608631    -2.1946022
C           1.0835379    -2.7793579    -1.0349335
H           0.0529980    -2.4034044    -0.9558482
H           1.1312716    -3.7715045    -0.5751190
H           1.3422923    -2.8472939    -2.0910816
C           7.2667640    -2.3317504    -0.6016440
H           8.1768182    -2.9252213    -0.6284616
C           6.8839001    -1.6847485     0.5727027
H           7.4967838    -1.7708359     1.4664203
C           5.7157156    -0.9187465     0.6097934
H           5.4253011    -0.4037797     1.5184045
C           4.9181646    -0.7986006    -0.5315024
C           5.3084996    -1.4464111    -1.7117473
H           4.6918481    -1.3519717    -2.6022311
C           6.4745510    -2.2080817    -1.7461822
H           6.7662241    -2.7040461    -2.6682762
29
179_C11H15NO2_1-0-5-6 (60,) energy =    -633.3829133
N           2.0607494    -1.9075531    -0.2321116
C           1.6236562    -1.7267917     1.1557836
H           0.5752905    -1.3941029     1.2026943
H           2.2589090    -0.9959549     1.6539503
H           1.7030691    -2.6817490     1.6856894
C           2.4446181    -0.8141013    -0.9969920
C           3.6440095     0.0569171    -0.5113914
O           3.5018201     0.6429206     0.7741093
C           2.5782331     1.7182560     0.7951838
H           2.5806652     2.1174572     1.8123440
H           1.5586674     1.3919393     0.5397764
H           2.8751462     2.5112822     0.0934951
H           3.7050770     0.8534722    -1.2666713
O           2.0882699    -0.6813754    -2.1629536
C           1.2412454    -2.8865148    -0.9505524
H           0.2103913    -2.5368396    -1.1064561
H           1.2168587    -3.8082945    -0.3611707
H           1.6833626    -3.0871031    -1.9264861
C           7.2723486    -2.2918729    -0.6989375
H           8.1852283    -2.8790556    -0.7538632
C           6.8603153    -1.7466222     0.5169698
H           7.4524069    -1.9067305     1.4145195
C           5.6889815    -0.9892991     0.5912066
H           5.3752027    -0.5549126     1.5334352
C           4.9194598    -0.7727059    -0.5552300
C           5.3372282    -1.3189861    -1.7761142
H           4.7385724    -1.1537945    -2.6682877
C           6.5063119    -2.0743873    -1.8468406
H           6.8208190    -2.4908114    -2.8002563
29
179_C11H15NO2_1-0-5-6 (75,) energy =    -633.3774769
N           2.1294849    -1.9541598    -0.1334926
C           1.3897923    -1.6227562     1.0925134
H           0.3511975    -1.3309977     0.8717109
H           1.8941751    -0.8152434     1.6225505
H           1.3681685    -2.5019823     1.7443582
C           2.5018722    -0.9004306    -0.9788380
C           3.6904959    -0.0030290    -0.5288844
O           3.5720544     0.5576649     0.7696098
C           2.7422528     1.7063509     0.8062769
H           2.7495721     2.0690955     1.8371314
H           1.7055991     1.4784847     0.5144462
H           3.1248941     2.4956292     0.1429066
H           3.7287484     0.8017629    -1.2764038
O           2.1711213    -0.8572672    -2.1557936
C           1.4827185    -3.0619736    -0.8477345
H           0.4701662    -2.8105467    -1.1948858
H           1.4225062    -3.9141460    -0.1636026
H           2.0825427    -3.3371634    -1.7161814
C           7.3184981    -2.3400236    -0.8289574
H           8.2312603    -2.9243013    -0.9106827
C           6.8753500    -1.9001344     0.4189745
H           7.4430952    -2.1415560     1.3140185
C           5.7042727    -1.1478581     0.5282000
H           5.3630487    -0.7972472     1.4954380
C           4.9685585    -0.8263188    -0.6160193
C           5.4147785    -1.2690264    -1.8677180
H           4.8377917    -1.0276144    -2.7566234
C           6.5835349    -2.0220176    -1.9731966
H           6.9216469    -2.3568901    -2.9503505
29
179_C11H15NO2_1-0-5-6 (90,) energy =    -633.3712944
N           2.1095786    -1.9350759    -0.0129571
C           1.0921301    -1.5285056     0.9692595
H           0.1107461    -1.3591179     0.4982610
H           1.4122347    -0.6198626     1.4817134
H           0.9855794    -2.3203531     1.7174739
C           2.4678721    -0.9287995    -0.9452576
C           3.6441373    -0.0094932    -0.5310637
O           3.5328044     0.5200516     0.7803322
C           2.8024921     1.7330951     0.8367896
H           2.7987370     2.0506406     1.8825916
H           1.7622418     1.6090523     0.4983594
H           3.2762421     2.5151040     0.2254011
H           3.6643776     0.8055172    -1.2677590
O           2.1241519    -0.9532421    -2.1148770
C           1.6831220    -3.1734794    -0.6835395
H           0.7229869    -3.0705235    -1.2091635
H           1.5900771    -3.9522903     0.0800710
H           2.4419121    -3.4753691    -1.4080716
C           7.2721455    -2.3320347    -0.9195311
H           8.1847823    -2.9132991    -1.0216246
C           6.8076035    -1.9716393     0.3464210
H           7.3577735    -2.2733707     1.2340621
C           5.6364863    -1.2245932     0.4826627
H           5.2743432    -0.9381561     1.4632206
C           4.9248042    -0.8252090    -0.6524187
C           5.3903899    -1.1907972    -1.9216094
H           4.8288679    -0.8930431    -2.8033522
C           6.5589364    -1.9403462    -2.0544995
H           6.9133742    -2.2145392    -3.0446582
29
179_C11H15NO2_1-0-5-6 (105,) energy =    -633.3698280
N           1.7348168    -1.5742197    -0.5134234
C           0.4581017    -1.1004842     0.0220025
H          -0.2528472    -1.9331366     0.0725100
H           0.0460375    -0.3387514    -0.6431160
H           0.5744584    -0.6846241     1.0351952
C           2.5399238    -0.5905673    -1.1131694
C           3.8011620    -0.0434100    -0.3767951
O           3.5671266     0.0995556     1.0125388
C           2.9297441     1.3186942     1.3626806
H           2.8070154     1.3064956     2.4484830
H           1.9419063     1.4216665     0.8922459
H           3.5442678     2.1852798     1.0787736
H           3.9474416     0.9448637    -0.8344787
O           2.1736632    -0.0150780    -2.1253042
C           2.3678308    -2.5585158     0.3674918
H           1.7225410    -3.4439481     0.4044286
H           2.5194084    -2.1885715     1.3904482
H           3.3324158    -2.8634729    -0.0413691
C           7.3892152    -2.3434641    -1.1418767
H           8.2924611    -2.9136809    -1.3417514
C           7.0539747    -1.9930122     0.1661465
H           7.6971113    -2.2894902     0.9908719
C           5.8941307    -1.2591967     0.4263470
H           5.6314680    -0.9823562     1.4411592
C           5.0564195    -0.8728446    -0.6240141
C           5.3970105    -1.2245609    -1.9381395
H           4.7519485    -0.9216707    -2.7591249
C           6.5563744    -1.9550668    -2.1941905
H           6.8092700    -2.2205115    -3.2172839
29
179_C11H15NO2_1-0-5-6 (120,) energy =    -633.3770753
N           1.7721608    -1.5155033    -0.4495548
C           0.3837258    -1.1430683    -0.1887184
H          -0.2628352    -2.0268300    -0.2410928
H           0.0566838    -0.4287603    -0.9453663
H           0.2788071    -0.7001286     0.8139932
C           2.5744040    -0.5604246    -1.0655088
C           3.8559406    -0.0321023    -0.3518702
O           3.6752503     0.1066463     1.0438233
C           2.9350963     1.2598333     1.4107872
H           2.8803244     1.2625592     2.5021396
H           1.9150586     1.2473609     1.0013441
H           3.4349769     2.1789365     1.0715026
H           3.9951681     0.9578069    -0.8096405
O           2.2094247     0.0143497    -2.0830213
C           2.3223331    -2.4221333     0.5559263
H           1.7769557    -3.3718276     0.4963662
H           2.2325540    -2.0291971     1.5773431
H           3.3741699    -2.6230422     0.3520287
C           7.3950336    -2.3666847    -1.2359106
H           8.2852173    -2.9459101    -1.4663149
C           7.1098522    -2.0094596     0.0818815
H           7.7793151    -2.3093324     0.8841194
C           5.9669786    -1.2633554     0.3806739
H           5.7452021    -0.9796522     1.4032988
C           5.0952737    -0.8725147    -0.6404700
C           5.3860563    -1.2313108    -1.9646138
H           4.7139763    -0.9247801    -2.7619895
C           6.5288399    -1.9730395    -2.2590434
H           6.7427314    -2.2438663    -3.2896126
29
179_C11H15NO2_1-0-5-6 (135,) energy =    -633.3837809
N           1.8065456    -1.4609783    -0.3910109
C           0.3622185    -1.2558080    -0.3634256
H          -0.1666449    -2.2007171    -0.5369236
H           0.0904045    -0.5520915    -1.1501858
H           0.0507084    -0.8628830     0.6160684
C           2.5841195    -0.5065642    -1.0142652
C           3.8873409    -0.0037656    -0.3269432
O           3.7511959     0.1368734     1.0738322
C           2.9613937     1.2497232     1.4590344
H           2.9665879     1.2747291     2.5514584
H           1.9230822     1.1629382     1.1078263
H           3.3817323     2.1902179     1.0733213
H           4.0327468     0.9850890    -0.7861493
O           2.2106344     0.0714893    -2.0300114
C           2.3050918    -2.3251204     0.6730401
H           1.8321875    -3.3092804     0.5674481
H           2.0738411    -1.9338268     1.6728794
H           3.3831532    -2.4549424     0.5904326
C           7.3563927    -2.4065934    -1.2991986
H           8.2292026    -3.0031886    -1.5507665
C           7.1224971    -2.0272369     0.0223889
H           7.8139049    -2.3262751     0.8061351
C           6.0023396    -1.2585775     0.3489179
H           5.8214772    -0.9565454     1.3743894
C           5.1019663    -0.8681758    -0.6474389
C           5.3420078    -1.2486781    -1.9756593
H           4.6483280    -0.9415146    -2.7539393
C           6.4623573    -2.0124931    -2.2980481
H           6.6369459    -2.3003713    -3.3314317
29
179_C11H15NO2_1-0-5-6 (150,) energy =    -633.3889744
N           1.8397620    -1.4295594    -0.3071417
C           0.3946597    -1.4192742    -0.4983245
H           0.0321470    -2.4121101    -0.7928583
H           0.1510751    -0.7059001    -1.2849445
H          -0.1072777    -1.1339387     0.4371254
C           2.5900050    -0.4649793    -0.9312057
C           3.9132186     0.0158084    -0.2721839
O           3.8186763     0.1589574     1.1330209
C           3.0331189     1.2677405     1.5376955
H           3.0715339     1.2975226     2.6293567
H           1.9855039     1.1704725     1.2182785
H           3.4344267     2.2096308     1.1353413
H           4.0659867     1.0027957    -0.7334492
O           2.2085307     0.1103088    -1.9480209
C           2.3087925    -2.2693721     0.7872263
H           1.9134217    -3.2820549     0.6403067
H           1.9653805    -1.9026938     1.7640208
H           3.3952643    -2.3242509     0.7979392
C           7.3113553    -2.4515496    -1.3299804
H           8.1664924    -3.0640950    -1.6030597
C           7.1251543    -2.0553298    -0.0057919
H           7.8367066    -2.3571718     0.7586119
C           6.0277759    -1.2660316     0.3478544
H           5.8846361    -0.9498725     1.3750638
C           5.1020999    -0.8719830    -0.6236699
C           5.2943728    -1.2689273    -1.9547730
H           4.5815890    -0.9578652    -2.7139008
C           6.3923165    -2.0531942    -2.3041117
H           6.5299592    -2.3536270    -3.3395157
29
179_C11H15NO2_1-0-5-6 (165,) energy =    -633.3921289
N           1.8365213    -1.4155951    -0.2445826
C           0.4481272    -1.6104695    -0.6410417
H           0.2975722    -2.6125075    -1.0641548
H           0.1919944    -0.8655145    -1.3932265
H          -0.2072930    -1.5043286     0.2333549
C           2.5684915    -0.4462454    -0.8735341
C           3.9116883     0.0184079    -0.2475407
O           3.8627797     0.1741480     1.1598396
C           3.0895829     1.2863700     1.5790177
H           3.1631303     1.3265352     2.6685518
H           2.0327659     1.1838670     1.2939643
H           3.4770909     2.2245599     1.1550143
H           4.0707723     0.9995789    -0.7192802
O           2.1840374     0.1153538    -1.8985073
C           2.2957202    -2.2567302     0.8523094
H           2.0434558    -3.3006432     0.6268209
H           1.8076477    -1.9823259     1.7973506
H           3.3716072    -2.1809746     0.9831071
C           7.2337541    -2.5200573    -1.3787250
H           8.0698254    -3.1499969    -1.6707243
C           7.0964963    -2.1016921    -0.0553963
H           7.8279574    -2.4037201     0.6899034
C           6.0235507    -1.2899081     0.3214419
H           5.9199681    -0.9560375     1.3477984
C           5.0728100    -0.8950965    -0.6254140
C           5.2161553    -1.3135953    -1.9559921
H           4.4849991    -1.0011017    -2.6967148
C           6.2899968    -2.1205082    -2.3282802
H           6.3897069    -2.4373492    -3.3631410
29
179_C11H15NO2_1-0-5-6 (180,) energy =    -633.3933023
N           1.7831346    -1.4243922    -0.2671028
C           0.5166341    -1.8336286    -0.8616415
H           0.6185049    -2.7968301    -1.3812936
H           0.2040841    -1.0768367    -1.5795028
H          -0.2393029    -1.9436132    -0.0752626
C           2.5072642    -0.4523637    -0.9026790
C           3.8634352     0.0174787    -0.3078544
O           3.8590095     0.2181717     1.0956451
C           3.0683441     1.3216907     1.5075745
H           3.1835477     1.4020672     2.5911801
H           2.0056811     1.1762233     1.2682835
H           3.4113074     2.2545561     1.0364715
H           4.0257145     0.9825256    -0.8108458
O           2.1268438     0.0822784    -1.9438109
C           2.2773597    -2.2923856     0.7947959
H           2.4779924    -3.3004478     0.4057878
H           1.5168388    -2.3762309     1.5812682
H           3.1834277    -1.8874080     1.2354543
C           7.1149063    -2.6114638    -1.4398788
H           7.9336143    -3.2641959    -1.7310210
C           7.0169110    -2.1494647    -0.1274850
H           7.7613497    -2.4402187     0.6094181
C           5.9667724    -1.3088456     0.2493168
H           5.8944711    -0.9422819     1.2670550
C           4.9997292    -0.9271228    -0.6861939
C           5.1043989    -1.3889247    -2.0059552
H           4.3614709    -1.0855852    -2.7385496
C           6.1552317    -2.2257540    -2.3787714
H           6.2244056    -2.5757080    -3.4054566
