29
179_C11H15NO2_24-6-7-8 (-165,) energy =    -633.3896904
N           1.9183149    -1.4889679    -0.3403956
C           2.3647101    -1.8988256     0.9847068
H           1.4975847    -1.9680297     1.6531004
H           3.0648566    -1.1758992     1.3961787
H           2.8484629    -2.8846127     0.9480857
C           2.5570340    -0.5838592    -1.1460983
C           3.7789130     0.2148735    -0.6032338
O           3.5935233     0.8885243     0.6350734
C           2.3364116     1.5277028     0.8009267
H           2.4008279     2.0897033     1.7359122
H           1.5111465     0.8084773     0.8666836
H           2.1285524     2.2270163    -0.0221877
H           3.9525116     0.9579022    -1.3943633
O           2.2303352    -0.3960892    -2.3167491
C           0.8492961    -2.2948187    -0.9171264
H          -0.0135846    -2.3074827    -0.2406651
H           1.1825488    -3.3304921    -1.0724896
H           0.5655613    -1.8638035    -1.8759727
C           7.2307629    -2.3956804    -0.3704870
H           8.0992418    -3.0471308    -0.3211593
C           6.9172752    -1.5596387     0.7010923
H           7.5435101    -1.5545648     1.5896586
C           5.8021737    -0.7204525     0.6403212
H           5.5631870    -0.0641590     1.4694907
C           4.9844301    -0.7157160    -0.4942726
C           5.3098938    -1.5488068    -1.5743576
H           4.6882792    -1.5384319    -2.4659694
C           6.4231736    -2.3853728    -1.5101911
H           6.6610704    -3.0279937    -2.3538341
29
179_C11H15NO2_24-6-7-8 (-150,) energy =    -633.3853633
N           1.9614759    -1.4866278    -0.3940758
C           2.4587889    -1.9350269     0.8990565
H           1.6183134    -2.0265026     1.5985039
H           3.1760209    -1.2273117     1.3079371
H           2.9436307    -2.9171112     0.8149083
C           2.5532172    -0.5402613    -1.1895894
C           3.8033919     0.2335189    -0.6748915
O           3.6407358     0.9790154     0.5301776
C           2.3291400     1.4062306     0.8675092
H           2.4463399     2.0921281     1.7104818
H           1.6787041     0.5775317     1.1686195
H           1.8498395     1.9450395     0.0377697
H           4.0018633     0.9361416    -1.4948359
O           2.1612259    -0.3001069    -2.3297973
C           0.8650814    -2.2718753    -0.9467157
H           0.0173312    -2.2750325    -0.2507254
H           1.1792072    -3.3115935    -1.1133729
H           0.5649771    -1.8303280    -1.8956563
C           7.1812544    -2.4656653    -0.3525728
H           8.0310136    -3.1395106    -0.2827187
C           6.9081194    -1.5676183     0.6792394
H           7.5484393    -1.5361143     1.5571759
C           5.8165885    -0.7003654     0.5911880
H           5.6071374     0.0031761     1.3891406
C           4.9804571    -0.7291490    -0.5294434
C           5.2684990    -1.6221950    -1.5714030
H           4.6367797    -1.6361242    -2.4563321
C           6.3576460    -2.4878571    -1.4805877
H           6.5646224    -3.1780956    -2.2942568
29
179_C11H15NO2_24-6-7-8 (-135,) energy =    -633.3810346
N           1.9913174    -1.4574621    -0.4616270
C           2.5415374    -2.0120424     0.7662270
H           1.7450779    -2.0944189     1.5167601
H           3.3320934    -1.3824479     1.1662029
H           2.9550426    -3.0149236     0.5929939
C           2.5590599    -0.4735794    -1.2307232
C           3.8588319     0.2391921    -0.7545060
O           3.7346827     1.0714909     0.4013095
C           2.4526805     1.3128246     0.9596889
H           2.5929815     2.1301431     1.6723224
H           2.0479856     0.4466229     1.4960627
H           1.7249913     1.6318687     0.2012796
H           4.0827145     0.8968568    -1.6031949
O           2.0860116    -0.1372658    -2.3142633
C           0.8169009    -2.1495694    -0.9780592
H           0.0264165    -2.1649691    -0.2176929
H           1.0633095    -3.1877168    -1.2406517
H           0.4675249    -1.6267988    -1.8667829
C           7.1859608    -2.5134635    -0.3657484
H           8.0243479    -3.1994845    -0.2794200
C           6.9606258    -1.5502587     0.6179324
H           7.6272887    -1.4797686     1.4737317
C           5.8837173    -0.6673836     0.5086533
H           5.7088347     0.0874581     1.2673285
C           5.0141210    -0.7454345    -0.5836608
C           5.2552168    -1.7033809    -1.5785855
H           4.6000998    -1.7566280    -2.4453635
C           6.3298459    -2.5850033    -1.4673174
H           6.5002191    -3.3261174    -2.2439284
29
179_C11H15NO2_24-6-7-8 (-120,) energy =    -633.3800181
N           1.6610507    -1.0334557    -1.0488907
C           1.0447161     0.1879930    -0.5462519
H           1.5223173     0.5240771     0.3742830
H          -0.0071875    -0.0163190    -0.3162212
H           1.0764128     1.0001630    -1.2866517
C           2.9365022    -1.4542664    -0.7591819
C           3.8105186    -0.4883246     0.0832404
O           3.6130826    -0.6376220     1.4992411
C           2.7792332    -1.6847097     1.9772627
H           2.9039562    -1.6845118     3.0633100
H           3.0709585    -2.6657280     1.5827986
H           1.7169018    -1.5179782     1.7479537
H           3.5222075     0.5408547    -0.1601847
O           3.3743741    -2.5355118    -1.1372438
C           0.8314483    -1.8531116    -1.9230883
H           0.5011484    -1.2689107    -2.7917815
H          -0.0581983    -2.2120290    -1.3892485
H           1.4214132    -2.7052562    -2.2570871
C           7.9940383    -0.8466364    -0.9380429
H           9.0463920    -0.9330353    -1.1957902
C           7.2322901     0.2053984    -1.4454815
H           7.6875078     0.9457757    -2.0980978
C           5.8827760     0.3152760    -1.1037915
H           5.2940238     1.1440476    -1.4927525
C           5.2796309    -0.6246055    -0.2632902
C           6.0512658    -1.6776821     0.2419332
H           5.5935285    -2.4077276     0.9006713
C           7.3995284    -1.7863656    -0.0911963
H           7.9892470    -2.6073740     0.3083168
29
179_C11H15NO2_24-6-7-8 (-105,) energy =    -633.3818671
N           1.5630564    -1.1345183    -1.0289153
C           0.9787622     0.1216795    -0.5752528
H           1.5546789     0.5452523     0.2473131
H          -0.0353153    -0.0723740    -0.2070800
H           0.9056714     0.8552721    -1.3911883
C           2.8736457    -1.5060085    -0.8495529
C           3.7808746    -0.4699955    -0.1402651
O           3.5160758    -0.3445085     1.2729767
C           2.9425418    -1.4545404     1.9491249
H           2.8719853    -1.1553004     2.9981446
H           3.5683687    -2.3543720     1.8808651
H           1.9370240    -1.6979890     1.5810011
H           3.5222515     0.5153488    -0.5447065
O           3.3043429    -2.5899793    -1.2303409
C           0.6813374    -2.0087694    -1.7914868
H           0.3062624    -1.4898721    -2.6836398
H          -0.1793087    -2.3138932    -1.1825825
H           1.2454622    -2.8902030    -2.0924840
C           8.0457533    -0.8532198    -0.7562488
H           9.1205327    -0.9337153    -0.8970414
C           7.3880984     0.3418782    -1.0442244
H           7.9457447     1.2003662    -1.4093568
C           6.0075512     0.4372641    -0.8591052
H           5.5012552     1.3754544    -1.0771520
C           5.2650857    -0.6527100    -0.3917195
C           5.9360628    -1.8527522    -0.1099848
H           5.3733665    -2.7173908     0.2206789
C           7.3147528    -1.9487134    -0.2889219
H           7.8208069    -2.8853892    -0.0697920
29
179_C11H15NO2_24-6-7-8 (-90,) energy =    -633.3846077
N           1.4811723    -1.1808974    -1.0299283
C           0.8960004     0.0875972    -0.6119953
H           1.5065392     0.5613126     0.1551125
H          -0.0936690    -0.1043802    -0.1814024
H           0.7645877     0.7718136    -1.4631245
C           2.8099642    -1.5148833    -0.9268485
C           3.7284153    -0.4616013    -0.2559249
O           3.4046391    -0.2306954     1.1297440
C           3.1018451    -1.3767315     1.9134315
H           2.9054705    -1.0045565     2.9222149
H           3.9440225    -2.0804135     1.9551338
H           2.2120085    -1.9066315     1.5481711
H           3.4978599     0.5023805    -0.7242713
O           3.2462108    -2.5832410    -1.3458018
C           0.5866362    -2.0830547    -1.7441646
H           0.2150219    -1.6105293    -2.6636999
H          -0.2754581    -2.3389123    -1.1157403
H           1.1371869    -2.9869057    -1.9999375
C           8.0195873    -0.8988877    -0.6180671
H           9.1005124    -0.9870076    -0.6907076
C           7.4005762     0.3333599    -0.8294030
H           7.9950139     1.2116632    -1.0671414
C           6.0127195     0.4387073    -0.7361850
H           5.5362035     1.4040202    -0.8944752
C           5.2206148    -0.6769303    -0.4355613
C           5.8534152    -1.9130629    -0.2307451
H           5.2551606    -2.7950799    -0.0404422
C           7.2415687    -2.0191696    -0.3195355
H           7.7161440    -2.9845006    -0.1631026
29
179_C11H15NO2_24-6-7-8 (-75,) energy =    -633.3863963
N           1.4362694    -1.1831826    -1.0627520
C           0.8430097     0.0889948    -0.6684883
H           1.4589919     0.5898596     0.0753846
H          -0.1367445    -0.1034743    -0.2155866
H           0.6876019     0.7463577    -1.5367174
C           2.7695045    -1.5043348    -0.9806392
C           3.6905955    -0.4461137    -0.3159288
O           3.3134795    -0.1945887     1.0503399
C           3.2861819    -1.3286576     1.9060047
H           2.9546803    -0.9613353     2.8805101
H           4.2801084    -1.7814176     2.0147971
H           2.5818211    -2.0953082     1.5538886
H           3.4808224     0.5127169    -0.8029886
O           3.2061932    -2.5697563    -1.4087155
C           0.5395870    -2.1023620    -1.7522403
H           0.1454704    -1.6424981    -2.6688968
H          -0.3079075    -2.3612496    -1.1053038
H           1.0949798    -3.0024569    -2.0103154
C           7.9868678    -0.9405072    -0.5567520
H           9.0682959    -1.0412005    -0.5996280
C           7.3904026     0.3095062    -0.7267608
H           8.0032675     1.1896676    -0.9027562
C           6.0021901     0.4292998    -0.6728382
H           5.5437259     1.4079372    -0.7991491
C           5.1846359    -0.6883452    -0.4532447
C           5.7952699    -1.9411831    -0.2871749
H           5.1810736    -2.8226446    -0.1567009
C           7.1849585    -2.0615758    -0.3377965
H           7.6413661    -3.0401027    -0.2126045
29
179_C11H15NO2_24-6-7-8 (-60,) energy =    -633.3863810
N           1.4088280    -1.1738686    -1.1408128
C           0.8198439     0.1053286    -0.7642868
H           1.4016781     0.5857825     0.0193845
H          -0.1859913    -0.0744008    -0.3669356
H           0.7230405     0.7769341    -1.6301153
C           2.7287775    -1.5228919    -0.9940492
C           3.6445806    -0.4637760    -0.3197035
O           3.2188351    -0.2449948     1.0385769
C           3.4630324    -1.3061731     1.9511175
H           3.0143892    -0.9944646     2.8977994
H           4.5357416    -1.4779123     2.1004704
H           2.9953576    -2.2467667     1.6259479
H           3.4401658     0.5004349    -0.7958124
O           3.1532469    -2.6150187    -1.3656537
C           0.5154176    -2.0945125    -1.8317556
H           0.1175003    -1.6306693    -2.7444529
H          -0.3301258    -2.3633491    -1.1856256
H           1.0749577    -2.9907817    -2.0941365
C           7.9404169    -0.9734830    -0.5676550
H           9.0212484    -1.0775089    -0.6171626
C           7.3483186     0.2818929    -0.7100195
H           7.9632300     1.1634679    -0.8710554
C           5.9607020     0.4046828    -0.6481788
H           5.5058369     1.3873056    -0.7548992
C           5.1383773    -0.7140387    -0.4482380
C           5.7457757    -1.9714905    -0.3060970
H           5.1294394    -2.8521872    -0.1836616
C           7.1347714    -2.0951748    -0.3660820
H           7.5878295    -3.0774828    -0.2599296
29
179_C11H15NO2_24-6-7-8 (-45,) energy =    -633.3849270
N           1.3719773    -1.1466199    -1.2463411
C           0.7899329     0.1320310    -0.8583887
H           1.3538564     0.5901883    -0.0486243
H          -0.2282406    -0.0422837    -0.4907415
H           0.7247609     0.8235738    -1.7111535
C           2.6689581    -1.5381949    -1.0250919
C           3.5851789    -0.4937700    -0.3303524
O           3.1216533    -0.3254195     1.0264815
C           3.6016417    -1.2483501     1.9930270
H           3.0847523    -0.9954695     2.9226085
H           4.6834242    -1.1591403     2.1457729
H           3.3657412    -2.2886679     1.7268664
H           3.3887862     0.4819920    -0.7843403
O           3.0684789    -2.6560310    -1.3458373
C           0.4749610    -2.0565812    -1.9459269
H           0.0685487    -1.5736337    -2.8443696
H          -0.3649182    -2.3436587    -1.2994336
H           1.0344374    -2.9462557    -2.2300548
C           7.8776595    -1.0210798    -0.6078800
H           8.9574641    -1.1298460    -0.6685056
C           7.2921523     0.2414578    -0.7052941
H           7.9109686     1.1243967    -0.8419482
C           5.9054876     0.3694404    -0.6304387
H           5.4556465     1.3573996    -0.7038438
C           5.0773940    -0.7505635    -0.4605358
C           5.6789790    -2.0150190    -0.3608484
H           5.0579003    -2.8943576    -0.2566735
C           7.0665088    -2.1439327    -0.4357676
H           7.5145655    -3.1315768    -0.3632719
29
179_C11H15NO2_24-6-7-8 (-30,) energy =    -633.3830709
N           1.3363030    -1.1530420    -1.2886381
C           0.7197950     0.0765715    -0.8093834
H           1.3266694     0.5528395    -0.0432878
H          -0.2495891    -0.1635283    -0.3546863
H           0.5382172     0.7788850    -1.6358608
C           2.6388331    -1.5381551    -1.0905384
C           3.5412972    -0.5263218    -0.3305768
O           3.0384993    -0.4258503     1.0221233
C           3.6898860    -1.1649818     2.0427276
H           3.1292453    -0.9505657     2.9567807
H           4.7329171    -0.8562338     2.1792414
H           3.6640939    -2.2483867     1.8597016
H           3.3572273     0.4673025    -0.7523624
O           3.0594555    -2.6209997    -1.4917754
C           0.4515497    -2.0376522    -2.0342219
H           0.0135701    -1.5032911    -2.8875206
H          -0.3671395    -2.3944838    -1.3948964
H           1.0295477    -2.8883195    -2.3913399
C           7.8258130    -1.1004765    -0.6048327
H           8.9039480    -1.2243367    -0.6658610
C           7.2580162     0.1690080    -0.7118339
H           7.8886259     1.0422679    -0.8563362
C           5.8728468     0.3168310    -0.6356435
H           5.4362013     1.3100023    -0.7171738
C           5.0305531    -0.7902084    -0.4551208
C           5.6149610    -2.0623522    -0.3479641
H           4.9816036    -2.9323004    -0.2372781
C           6.9997811    -2.2114434    -0.4229528
H           7.4346434    -3.2044381    -0.3442523
29
179_C11H15NO2_24-6-7-8 (-15,) energy =    -633.3818849
N           1.3280013    -1.1647972    -1.3218300
C           0.6940109     0.0291662    -0.7798159
H           1.2995985     0.4805576     0.0023137
H          -0.2669783    -0.2486139    -0.3285911
H           0.4932432     0.7653180    -1.5716504
C           2.6327769    -1.5453451    -1.1338412
C           3.5184378    -0.5659954    -0.3154967
O           2.9882521    -0.5508464     1.0332543
C           3.7706269    -1.0733378     2.0943955
H           3.1698882    -0.9178803     2.9949904
H           4.7281937    -0.5502566     2.2069678
H           3.9698227    -2.1477571     1.9854192
H           3.3367404     0.4457518    -0.6973312
O           3.0725312    -2.5973125    -1.5912539
C           0.4577816    -2.0195930    -2.1174576
H           0.0205015    -1.4476029    -2.9464169
H          -0.3617074    -2.4158013    -1.5028683
H           1.0471384    -2.8455261    -2.5121636
C           7.7996714    -1.1334033    -0.6034059
H           8.8773504    -1.2591656    -0.6683622
C           7.2334565     0.1365609    -0.7110705
H           7.8652005     1.0081698    -0.8602548
C           5.8485262     0.2873397    -0.6288758
H           5.4124309     1.2806320    -0.7118035
C           5.0073235    -0.8184899    -0.4415870
C           5.5893724    -2.0920599    -0.3364161
H           4.9543291    -2.9609668    -0.2230911
C           6.9731299    -2.2436564    -0.4163138
H           7.4073836    -3.2369495    -0.3386350
29
179_C11H15NO2_24-6-7-8 (0,) energy =    -633.3818242
N           1.3280762    -1.1635404    -1.3500986
C           0.6786631    -0.0089780    -0.7450789
H           1.2766243     0.4020646     0.0648845
H          -0.2817304    -0.3213856    -0.3158420
H           0.4748704     0.7690605    -1.4949704
C           2.6351682    -1.5390228    -1.1732738
C           3.5042484    -0.6006475    -0.2926228
O           2.9561404    -0.6870855     1.0461877
C           3.8149703    -0.9830523     2.1356028
H           3.1805220    -0.9186391     3.0241545
H           4.6382974    -0.2631649     2.2310387
H           4.2411090    -1.9922662     2.0775292
H           3.3229108     0.4314360    -0.6223852
O           3.0951177    -2.5546224    -1.6877195
C           0.4745441    -1.9792681    -2.2027481
H           0.0424194    -1.3657423    -3.0043125
H          -0.3487225    -2.4151034    -1.6210336
H           1.0756239    -2.7774342    -2.6351902
C           7.7812857    -1.1618585    -0.6146139
H           8.8580805    -1.2897111    -0.6892554
C           7.2159005     0.1072967    -0.7330632
H           7.8473541     0.9757596    -0.9006045
C           5.8318663     0.2621096    -0.6365597
H           5.3959512     1.2547122    -0.7280011
C           4.9931987    -0.8401248    -0.4255336
C           5.5737097    -2.1138272    -0.3126770
H           4.9371517    -2.9798498    -0.1815884
C           6.9558029    -2.2693484    -0.4045293
H           7.3900558    -3.2619848    -0.3193191
29
179_C11H15NO2_24-6-7-8 (15,) energy =    -633.3830830
N           1.3284605    -1.1596008    -1.3634185
C           0.6668249    -0.0480928    -0.6946295
H           1.2606868     0.3186124     0.1393124
H          -0.2917191    -0.3932951    -0.2870084
H           0.4581530     0.7705542    -1.3985127
C           2.6391282    -1.5298700    -1.2069423
C           3.4986679    -0.6383627    -0.2713118
O           2.9495137    -0.8249433     1.0536744
C           3.8355359    -0.8811258     2.1608926
H           3.1905432    -0.9544543     3.0409564
H           4.4565867     0.0215607     2.2480207
H           4.4967440    -1.7543878     2.1283632
H           3.3179716     0.4124732    -0.5448126
O           3.1156758    -2.5039683    -1.7818467
C           0.4858696    -1.9326560    -2.2653149
H           0.0473387    -1.2770897    -3.0292026
H          -0.3325559    -2.4125512    -1.7122322
H           1.0971412    -2.6959845    -2.7439339
C           7.7707221    -1.1988387    -0.6276867
H           8.8464398    -1.3298613    -0.7115651
C           7.2080724     0.0709176    -0.7504624
H           7.8406646     0.9359951    -0.9307364
C           5.8252673     0.2315104    -0.6404642
H           5.3909694     1.2245605    -0.7349644
C           4.9877533    -0.8669525    -0.4138969
C           5.5646383    -2.1418400    -0.2978736
H           4.9243961    -3.0032986    -0.1503955
C           6.9448607    -2.3033441    -0.4006523
H           7.3777019    -3.2962443    -0.3113972
29
179_C11H15NO2_24-6-7-8 (30,) energy =    -633.3853522
N           1.3477454    -1.1566753    -1.3636982
C           0.6736240    -0.0909635    -0.6359751
H           1.2515758     0.2131430     0.2336518
H          -0.2939501    -0.4605504    -0.2741765
H           0.4816544     0.7758074    -1.2850229
C           2.6640202    -1.5144174    -1.2284680
C           3.5116397    -0.6728638    -0.2376945
O           2.9765036    -0.9679990     1.0676033
C           3.8339126    -0.7834947     2.1843331
H           3.2146216    -0.9812983     3.0634530
H           4.2211269     0.2446881     2.2449967
H           4.6836648    -1.4745196     2.1780524
H           3.3228147     0.3940526    -0.4428231
O           3.1599274    -2.4405638    -1.8619401
C           0.5215055    -1.8782736    -2.3216761
H           0.0970794    -1.1827405    -3.0579093
H          -0.3067023    -2.3857888    -1.8096982
H           1.1415754    -2.6152902    -2.8293797
C           7.7792890    -1.2181427    -0.6427404
H           8.8539545    -1.3491380    -0.7391898
C           7.2133338     0.0486684    -0.7788646
H           7.8425450     0.9111801    -0.9819207
C           5.8318222     0.2103499    -0.6507409
H           5.3941788     1.2011389    -0.7540191
C           5.0015213    -0.8857057    -0.3952112
C           5.5801926    -2.1579512    -0.2661197
H           4.9417442    -3.0158796    -0.0886578
C           6.9586905    -2.3201959    -0.3844275
H           7.3948048    -3.3105351    -0.2834535
29
179_C11H15NO2_24-6-7-8 (45,) energy =    -633.3878021
N           1.3560732    -1.1431342    -1.3556308
C           0.6712606    -0.1354634    -0.5593575
H           1.2430172     0.1073531     0.3332492
H          -0.2963912    -0.5348487    -0.2313062
H           0.4786033     0.7752949    -1.1449774
C           2.6791067    -1.4859669    -1.2499340
C           3.5211166    -0.7011888    -0.2083518
O           3.0136709    -1.1027438     1.0729438
C           3.7812368    -0.6922392     2.1953436
H           3.2136870    -1.0039512     3.0760692
H           3.9120897     0.4009631     2.2221049
H           4.7705163    -1.1623601     2.2149648
H           3.3234596     0.3770909    -0.3381797
O           3.1893608    -2.3570548    -1.9459543
C           0.5390106    -1.8088615    -2.3608595
H           0.1090893    -1.0716577    -3.0520762
H          -0.2848980    -2.3566468    -1.8848642
H           1.1677611    -2.5050978    -2.9134941
C           7.7807817    -1.2464318    -0.6757295
H           8.8535153    -1.3806004    -0.7880093
C           7.2136711     0.0177135    -0.8306427
H           7.8403095     0.8746278    -1.0633526
C           5.8347450     0.1844646    -0.6805901
H           5.3956037     1.1733466    -0.7964826
C           5.0105199    -0.9052371    -0.3862962
C           5.5888224    -2.1744921    -0.2372842
H           4.9517410    -3.0251799    -0.0211644
C           6.9645558    -2.3415806    -0.3761092
H           7.4022056    -3.3294967    -0.2590560
29
179_C11H15NO2_24-6-7-8 (60,) energy =    -633.3892739
N           1.3779696    -1.1382911    -1.3440094
C           0.6828106    -0.1955907    -0.4813789
H           1.2593053     0.0037742     0.4186374
H          -0.2737196    -0.6324030    -0.1685517
H           0.4671082     0.7459835    -1.0072427
C           2.7073959    -1.4655044    -1.2657948
C           3.5471259    -0.7362768    -0.1817658
O           3.0712235    -1.2314617     1.0738493
C           3.6768781    -0.6238244     2.2055306
H           3.1880116    -1.0534972     3.0834920
H           3.5235896     0.4673165     2.2058185
H           4.7535551    -0.8259474     2.2528708
H           3.3409929     0.3465123    -0.2423292
O           3.2279913    -2.2812030    -2.0182698
C           0.5653486    -1.7527244    -2.3849348
H           0.1145004    -0.9803881    -3.0223386
H          -0.2430736    -2.3480483    -1.9403562
H           1.2031152    -2.3977194    -2.9871822
C           7.7968189    -1.2943005    -0.7185466
H           8.8667470    -1.4348948    -0.8484804
C           7.2282497    -0.0348457    -0.9040699
H           7.8516405     0.8124820    -1.1772535
C           5.8530825     0.1399376    -0.7298704
H           5.4131067     1.1256365    -0.8688214
C           5.0351435    -0.9381491    -0.3820277
C           5.6136124    -2.2018640    -0.2003263
H           4.9798829    -3.0414267     0.0651228
C           6.9856321    -2.3765918    -0.3635892
H           7.4246301    -3.3606360    -0.2214630
29
179_C11H15NO2_24-6-7-8 (75,) energy =    -633.3906139
N           1.6134907    -1.8846649    -0.3281997
C           1.8793277    -2.0106728     1.0974388
H           0.9281800    -2.0186874     1.6445932
H           2.4700692    -1.1726810     1.4542317
H           2.4032778    -2.9530645     1.3113521
C           2.2616450    -1.0597723    -1.2033113
C           3.2952905    -0.0164785    -0.7078696
O           2.8619051     0.6611446     0.4632981
C           3.4984296     1.9165963     0.6590884
H           3.0630505     2.3488911     1.5633421
H           3.3073643     2.5900372    -0.1896166
H           4.5831260     1.8146390     0.7910273
H           3.3169902     0.6990722    -1.5405632
O           2.0918495    -1.1218853    -2.4206406
C           0.6979511    -2.8795940    -0.8728945
H          -0.2585110    -2.8367608    -0.3376784
H           1.1128311    -3.8908704    -0.7598659
H           0.5434500    -2.6719767    -1.9303364
C           7.2187176    -1.8498656    -0.4544066
H           8.2009289    -2.3117181    -0.4006451
C           6.5670586    -1.4497100     0.7120708
H           7.0393968    -1.5989614     1.6796951
C           5.3042063    -0.8562281     0.6443001
H           4.8011830    -0.5467533     1.5553119
C           4.6846880    -0.6478790    -0.5921276
C           5.3448715    -1.0521145    -1.7608986
H           4.8577454    -0.9071010    -2.7213927
C           6.6014082    -1.6515539    -1.6921338
H           7.1006148    -1.9617165    -2.6063913
29
179_C11H15NO2_24-6-7-8 (90,) energy =    -633.3909838
N           1.6262831    -1.8557537    -0.3610687
C           1.9335288    -2.0733791     1.0449230
H           1.0066294    -2.0439487     1.6320137
H           2.5988429    -1.3029408     1.4219136
H           2.3961793    -3.0600828     1.1870078
C           2.2560028    -0.9816611    -1.2003160
C           3.3172233     0.0089251    -0.6577642
O           2.9005371     0.6309189     0.5513040
C           3.3091488     1.9869580     0.6607241
H           2.9268224     2.3530747     1.6168481
H           2.8865360     2.5946862    -0.1522869
H           4.4032192     2.0880779     0.6479212
H           3.3604432     0.7619955    -1.4541525
O           2.0462476    -0.9584005    -2.4132132
C           0.6677407    -2.7917367    -0.9342156
H          -0.2647803    -2.7692648    -0.3570307
H           1.0645084    -3.8162073    -0.9107077
H           0.4740911    -2.5061505    -1.9668492
C           7.2007361    -1.9093721    -0.4180951
H           8.1743882    -2.3893470    -0.3667763
C           6.6234712    -1.3672282     0.7297425
H           7.1459251    -1.4230554     1.6814135
C           5.3714131    -0.7501932     0.6643993
H           4.9232206    -0.3293838     1.5589334
C           4.6872409    -0.6656531    -0.5515205
C           5.2727787    -1.2102129    -1.7036548
H           4.7387633    -1.1535288    -2.6484798
C           6.5193769    -1.8296446    -1.6356768
H           6.9610673    -2.2490743    -2.5358756
29
179_C11H15NO2_24-6-7-8 (105,) energy =    -633.3905838
N           1.6695441    -1.8235758    -0.3454176
C           1.9990793    -2.1112262     1.0427418
H           1.1013600    -2.0130359     1.6671071
H           2.7511723    -1.4249217     1.4190907
H           2.3687485    -3.1416607     1.1358140
C           2.2963427    -0.9195294    -1.1541330
C           3.3853363     0.0209167    -0.5786440
O           2.9997336     0.5946582     0.6662510
C           3.1309216     2.0073053     0.7165169
H           2.8037515     2.3165145     1.7125509
H           2.4966759     2.4961088    -0.0365220
H           4.1721850     2.3266583     0.5668084
H           3.4414018     0.8069484    -1.3405507
O           2.0582964    -0.8285878    -2.3588201
C           0.6617311    -2.6958005    -0.9335251
H          -0.2573628    -2.6610064    -0.3353811
H           1.0172442    -3.7350887    -0.9603407
H           0.4581267    -2.3597215    -1.9489976
C           7.2436961    -1.9518281    -0.4197653
H           8.2127361    -2.4426067    -0.3862744
C           6.7352308    -1.3264440     0.7182343
H           7.3060815    -1.3270541     1.6434193
C           5.4893297    -0.6952024     0.6773820
H           5.0918781    -0.2089135     1.5622704
C           4.7419561    -0.6829816    -0.5035124
C           5.2581507    -1.3106855    -1.6466775
H           4.6784851    -1.3045856    -2.5659006
C           6.5000171    -1.9417142    -1.6030234
H           6.8887881    -2.4251185    -2.4955663
29
179_C11H15NO2_24-6-7-8 (120,) energy =    -633.3905559
N           1.6933319    -1.7647145    -0.3605773
C           2.0368241    -2.1086957     1.0115280
H           1.1535095    -2.0032088     1.6549566
H           2.8173350    -1.4605219     1.3974133
H           2.3745448    -3.1528711     1.0638539
C           2.3412842    -0.8583240    -1.1505745
C           3.4574238     0.0345508    -0.5508966
O           3.1006055     0.5967985     0.7081502
C           2.9443073     2.0071063     0.6953150
H           2.6870169     2.3019123     1.7159823
H           2.1361898     2.3201943     0.0191757
H           3.8729143     2.5160158     0.3995501
H           3.5452316     0.8342838    -1.2954491
O           2.0953921    -0.7261124    -2.3500988
C           0.6535987    -2.5891654    -0.9616485
H          -0.2557312    -2.5485438    -0.3491062
H           0.9788024    -3.6366436    -1.0276734
H           0.4456263    -2.2146541    -1.9627169
C           7.2731587    -2.0192466    -0.4136728
H           8.2324064    -2.5293922    -0.3875571
C           6.8123650    -1.3312207     0.7084070
H           7.4121074    -1.3025385     1.6146735
C           5.5794700    -0.6744147     0.6761431
H           5.2190751    -0.1370922     1.5467822
C           4.7956836    -0.7017485    -0.4807254
C           5.2634426    -1.3922997    -1.6083218
H           4.6577409    -1.4130395    -2.5103462
C           6.4936911    -2.0463961    -1.5731918
H           6.8449548    -2.5775895    -2.4540360
29
179_C11H15NO2_24-6-7-8 (135,) energy =    -633.3913566
N           1.7179384    -1.7084310    -0.3526660
C           2.0804058    -2.1040752     1.0009663
H           1.2084258    -2.0116329     1.6615740
H           2.8738131    -1.4771967     1.3955771
H           2.4071528    -3.1530237     1.0124072
C           2.3807568    -0.8016218    -1.1308662
C           3.5240314     0.0496939    -0.5203169
O           3.2044115     0.6049487     0.7498453
C           2.7577956     1.9504564     0.7001197
H           2.5731631     2.2567535     1.7329644
H           1.8258944     2.0518165     0.1257516
H           3.5185834     2.6109005     0.2597385
H           3.6350056     0.8596469    -1.2525112
O           2.1223186    -0.6344134    -2.3232990
C           0.6534012    -2.4950714    -0.9610929
H          -0.2432524    -2.4601132    -0.3299501
H           0.9589306    -3.5450927    -1.0687297
H           0.4333135    -2.0838466    -1.9450373
C           7.2977846    -2.0788928    -0.4199449
H           8.2473223    -2.6073075    -0.4035653
C           6.8844942    -1.3412439     0.6891358
H           7.5121365    -1.2917598     1.5753800
C           5.6645687    -0.6604514     0.6695788
H           5.3421585    -0.0829111     1.5288994
C           4.8449411    -0.7151299    -0.4615729
C           5.2648272    -1.4552815    -1.5763247
H           4.6340029    -1.4945343    -2.4603144
C           6.4833373    -2.1317494    -1.5540306
H           6.7976157    -2.7007399    -2.4251678
29
179_C11H15NO2_24-6-7-8 (150,) energy =    -633.3926043
N           1.7398412    -1.6544956    -0.3286766
C           2.1342856    -2.0941103     1.0034000
H           1.2600036    -2.0803864     1.6665252
H           2.8907216    -1.4377310     1.4224293
H           2.5200349    -3.1226084     0.9692696
C           2.4250305    -0.7668289    -1.1117055
C           3.5911675     0.0589855    -0.5067358
O           3.3084715     0.6215014     0.7658910
C           2.5876215     1.8414611     0.7034681
H           2.4629484     2.1848458     1.7334129
H           1.5960464     1.7093191     0.2472891
H           3.1395631     2.6021260     0.1325137
H           3.7172838     0.8689340    -1.2389816
O           2.1622000    -0.5926343    -2.3019492
C           0.6670072    -2.4273872    -0.9414873
H          -0.2098657    -2.4290220    -0.2829556
H           0.9786335    -3.4686469    -1.1048988
H           0.4141797    -1.9779265    -1.9005112
C           7.3146221    -2.1538581    -0.4215907
H           8.2522560    -2.7031982    -0.4089671
C           6.9347572    -1.3869574     0.6796753
H           7.5766151    -1.3355882     1.5555666
C           5.7309205    -0.6782077     0.6655468
H           5.4367495    -0.0760523     1.5178241
C           4.8930402    -0.7354939    -0.4523491
C           5.2797509    -1.5042886    -1.5594697
H           4.6359113    -1.5434995    -2.4339452
C           6.4829581    -2.2080643    -1.5428225
H           6.7713127    -2.7992004    -2.4081507
29
179_C11H15NO2_24-6-7-8 (165,) energy =    -633.3933220
N           1.7883726    -1.5966148    -0.3122646
C           2.1954749    -2.0420560     1.0148454
H           1.3212800    -2.0539576     1.6777070
H           2.9377832    -1.3709323     1.4367265
H           2.6046918    -3.0611534     0.9719702
C           2.4835014    -0.7256239    -1.1066800
C           3.6688825     0.0871147    -0.5162857
O           3.4198878     0.6677418     0.7532737
C           2.4641447     1.7155584     0.7183867
H           2.3923719     2.1077311     1.7357182
H           1.4751285     1.3575053     0.3999013
H           2.7821738     2.5214264     0.0407558
H           3.8058671     0.8874926    -1.2586665
O           2.2159307    -0.5568207    -2.2960628
C           0.7104290    -2.3674980    -0.9196968
H          -0.1567737    -2.3798839    -0.2490206
H           1.0237731    -3.4055467    -1.0997640
H           0.4425754    -1.9087550    -1.8702240
C           7.3194093    -2.2423924    -0.4149208
H           8.2387141    -2.8217897    -0.3980522
C           6.9627243    -1.4580105     0.6818314
H           7.6048966    -1.4224533     1.5582514
C           5.7826269    -0.7107422     0.6622567
H           5.5090074    -0.0940585     1.5109051
C           4.9444821    -0.7468928    -0.4567348
C           5.3087706    -1.5322024    -1.5597645
H           4.6662380    -1.5546625    -2.4357594
C           6.4884005    -2.2747415    -1.5373047
H           6.7589709    -2.8785984    -2.3995551
29
179_C11H15NO2_24-6-7-8 (180,) energy =    -633.3924806
N           1.8466852    -1.5422963    -0.3087193
C           2.2680636    -1.9648386     1.0213798
H           1.3936356    -2.0031283     1.6827658
H           2.9866473    -1.2640341     1.4374936
H           2.7152433    -2.9680974     0.9881910
C           2.5216452    -0.6635421    -1.1132381
C           3.7244680     0.1458252    -0.5474502
O           3.5096015     0.7658855     0.7102559
C           2.3724301     1.6146768     0.7493821
H           2.3739041     2.0905839     1.7329500
H           1.4375663     1.0536606     0.6199150
H           2.4279661     2.3917206    -0.0271889
H           3.8747605     0.9216985    -1.3126787
O           2.2320841    -0.4951975    -2.2970150
C           0.7790028    -2.3368610    -0.9039577
H          -0.0833829    -2.3620096    -0.2275875
H           1.1112973    -3.3696224    -1.0803039
H           0.4959928    -1.8881972    -1.8548946
C           7.2777370    -2.3283261    -0.3965476
H           8.1719738    -2.9452551    -0.3676763
C           6.9395267    -1.5288723     0.6951468
H           7.5716262    -1.5185236     1.5794975
C           5.7915424    -0.7336649     0.6601837
H           5.5340210    -0.1051659     1.5051694
C           4.9663292    -0.7365784    -0.4690622
C           5.3141818    -1.5351591    -1.5679459
H           4.6832680    -1.5315247    -2.4527480
C           6.4611421    -2.3265852    -1.5298697
H           6.7178521    -2.9413288    -2.3886432
