20
300_C8H10O2_0-4-12-9 (-165,) energy =    -461.2971519
C           1.6963785    -1.8406574    -0.3742792
H           2.2326739    -2.6643541     0.1113479
H           1.8720724    -1.8711252    -1.4532027
H           0.6259904    -1.9566281    -0.1874842
O           2.0450493    -0.5863628     0.1908731
C           5.7821829     1.1410609     0.8239153
H           6.7350730     1.6237314     1.0212706
C           4.6277876     1.5922073     1.4610345
H           4.6398862     2.4229184     2.1593137
C           3.4191123     0.9575631     1.1980338
O           2.2859249     1.3904219     1.8188891
H           1.5679891     0.8107485     1.5068273
C           3.3522801    -0.1383010     0.3069342
C           4.5030073    -0.5788298    -0.3673083
C           4.5373135    -1.6683254    -1.4234040
H           3.9205083    -1.4183790    -2.2945026
H           4.2093845    -2.6453139    -1.0550240
H           5.5629291    -1.7902872    -1.7834423
C           5.7120300     0.0788715    -0.0713916
H           6.6131305    -0.2554428    -0.5786385
20
300_C8H10O2_0-4-12-9 (-150,) energy =    -461.2990026
C           1.7222382    -1.8714568    -0.2910863
H           2.2943804    -2.5680248     0.3335528
H           1.8976666    -2.0965369    -1.3466548
H           0.6571293    -1.9919653    -0.0769966
O           2.0316610    -0.5191786     0.0256691
C           5.7846856     1.0715660     0.8802250
H           6.7439282     1.5166326     1.1289887
C           4.6206039     1.5530723     1.4765992
H           4.6340614     2.3693741     2.1916519
C           3.4013538     0.9679184     1.1492670
O           2.2560733     1.4273404     1.7259794
H           1.5364255     0.8767415     1.3670370
C           3.3405916    -0.1103547     0.2400091
C           4.4997391    -0.5673529    -0.4058133
C           4.5060187    -1.6103958    -1.5049534
H           3.8211796    -1.3457505    -2.3189681
H           4.2318232    -2.6121210    -1.1559355
H           5.5088980    -1.6828535    -1.9356589
C           5.7188930     0.0340385    -0.0455966
H           6.6276871    -0.3149851    -0.5288033
20
300_C8H10O2_0-4-12-9 (-135,) energy =    -461.3009750
C           1.7545700    -1.8613732    -0.1978908
H           2.2780627    -2.4209903     0.5867865
H           1.9978324    -2.2896488    -1.1743714
H           0.6758402    -1.9383070    -0.0378172
O           2.0684043    -0.4702293    -0.1349025
C           5.8167445     1.0067717     0.9191179
H           6.7780371     1.4199949     1.2115721
C           4.6484879     1.4971826     1.5001439
H           4.6632030     2.2870627     2.2442601
C           3.4236296     0.9562070     1.1163113
O           2.2712036     1.4232942     1.6704534
H           1.5522960     0.9156935     1.2502367
C           3.3691953    -0.0847434     0.1679196
C           4.5336771    -0.5478421    -0.4600300
C           4.5121168    -1.5595987    -1.5841303
H           3.7529991    -1.3092434    -2.3339830
H           4.3074292    -2.5796193    -1.2363175
H           5.4827679    -1.5787936    -2.0884275
C           5.7571864     0.0053721    -0.0480854
H           6.6713755    -0.3471960    -0.5185194
20
300_C8H10O2_0-4-12-9 (-120,) energy =    -461.3026159
C           1.7579437    -1.8487271    -0.0778330
H           2.0112204    -2.1776018     0.9378608
H           2.2575862    -2.4993691    -0.8016484
H           0.6772626    -1.9174086    -0.2252723
O           2.0996966    -0.4733911    -0.2736537
C           5.8165557     0.9539553     0.9459287
H           6.7729991     1.3506625     1.2752281
C           4.6398743     1.4263522     1.5252180
H           4.6456996     2.1865160     2.2997850
C           3.4193345     0.9101478     1.0926577
O           2.2554352     1.3637740     1.6335428
H           1.5450686     0.9062802     1.1458292
C           3.3844124    -0.0879852     0.1013241
C           4.5576114    -0.5328424    -0.5206730
C           4.5298472    -1.5125601    -1.6704667
H           3.6677200    -1.3359626    -2.3223626
H           4.4799168    -2.5553821    -1.3301246
H           5.4368376    -1.4148580    -2.2749924
C           5.7755879    -0.0042863    -0.0664293
H           6.6983088    -0.3392295    -0.5332827
20
300_C8H10O2_0-4-12-9 (-105,) energy =    -461.3035709
C           1.7443038    -1.7832643     0.0159931
H           1.7835544    -1.8718327     1.1091622
H           2.3823976    -2.5550209    -0.4282431
H           0.7166429    -1.9248427    -0.3275937
O           2.1347519    -0.4725118    -0.4100533
C           5.8139335     0.9084461     0.9627763
H           6.7644672     1.2875383     1.3282051
C           4.6283685     1.3529427     1.5472664
H           4.6240537     2.0725637     2.3596579
C           3.4145170     0.8631779     1.0666895
O           2.2388589     1.2915589     1.6052392
H           1.5388321     0.9053411     1.0463081
C           3.3996286    -0.0741910     0.0198534
C           4.5814897    -0.5031745    -0.5934786
C           4.5521130    -1.4606447    -1.7608617
H           3.6528918    -1.3161656    -2.3676628
H           4.5637402    -2.5088957    -1.4326275
H           5.4276661    -1.3149856    -2.4013072
C           5.7924941     0.0018106    -0.0975473
H           6.7241478    -0.3153987    -0.5590635
20
300_C8H10O2_0-4-12-9 (-90,) energy =    -461.3033614
C           1.6351703    -1.7388479     0.1230554
H           1.5608607    -1.6127740     1.2104501
H           2.2968622    -2.5857232    -0.0937456
H           0.6444287    -1.9373025    -0.2930820
O           2.1068411    -0.5401307    -0.5075977
C           5.7525696     0.8293741     0.9620833
H           6.6979316     1.1967626     1.3520745
C           4.5604309     1.2350167     1.5615717
H           4.5458140     1.9148513     2.4074532
C           3.3533464     0.7620018     1.0482273
O           2.1688232     1.1585044     1.5982797
H           1.4764450     0.8613024     0.9796112
C           3.3520883    -0.1168271    -0.0466412
C           4.5406912    -0.5162241    -0.6655839
C           4.5140047    -1.4431673    -1.8570481
H           3.6845782    -1.2012201    -2.5286183
H           4.3885785    -2.4914403    -1.5541038
H           5.4497656    -1.3778779    -2.4206008
C           5.7448904    -0.0243457    -0.1421746
H           6.6820517    -0.3156233    -0.6094081
20
300_C8H10O2_0-4-12-9 (-75,) energy =    -461.3019810
C           1.6342764    -1.6893603     0.2347224
H           1.4638194    -1.3571791     1.2652524
H           2.2905742    -2.5683110     0.2496198
H           0.6814428    -1.9557925    -0.2289150
O           2.1964743    -0.6454187    -0.5739546
C           5.7722088     0.8620073     0.9407678
H           6.7038941     1.2507022     1.3426251
C           4.5657182     1.2102023     1.5459500
H           4.5248456     1.8706605     2.4063209
C           3.3750037     0.7105331     1.0189575
O           2.1796441     1.0758259     1.5769559
H           1.4930101     0.8569353     0.9227313
C           3.4024053    -0.1419652    -0.0953301
C           4.6074926    -0.4853157    -0.7184082
C           4.6066630    -1.3916748    -1.9255553
H           3.9659569    -0.9961657    -2.7213557
H           4.2250437    -2.3910034    -1.6823661
H           5.6190363    -1.5076832    -2.3238393
C           5.7932392     0.0377203    -0.1860666
H           6.7400742    -0.2139669    -0.6566094
20
300_C8H10O2_0-4-12-9 (-60,) energy =    -461.2990949
C           1.5697008    -1.6567992     0.3505314
H           1.2846943    -1.1630084     1.2842194
H           2.1906074    -2.5289229     0.5925067
H           0.6746157    -1.9871829    -0.1813932
O           2.2604371    -0.7796742    -0.5495443
C           5.7817771     0.8694276     0.9605196
H           6.7060041     1.2788597     1.3586525
C           4.5734474     1.1559454     1.5914391
H           4.5200631     1.7956870     2.4667615
C           3.3889741     0.6332322     1.0721807
O           2.1988303     0.9825841     1.6655267
H           1.5038367     0.8848795     0.9939075
C           3.4198657    -0.1927373    -0.0631800
C           4.6315174    -0.4705285    -0.7131548
C           4.6438975    -1.3541419    -1.9368163
H           4.0253552    -0.9365187    -2.7394848
H           4.2408691    -2.3500225    -1.7183485
H           5.6626932    -1.4748604    -2.3170677
C           5.8071536     0.0823635    -0.1922312
H           6.7522893    -0.1248834    -0.6873288
20
300_C8H10O2_0-4-12-9 (-45,) energy =    -461.2976666
C           1.4770520    -1.4907576     0.2703029
H           0.8127113    -0.7692988     0.7504852
H           1.9837309    -2.0833313     1.0426125
H           0.8990029    -2.1582425    -0.3740564
O           2.4226744    -0.8532762    -0.5904386
C           5.8437054     1.0116419     0.9059008
H           6.7439776     1.4915479     1.2787587
C           4.6285331     1.2179423     1.5547522
H           4.5711292     1.8657026     2.4285965
C           3.4624492     0.6125069     1.0795429
O           2.2401110     0.8377462     1.6670672
H           2.3718490     1.4335447     2.4206119
C           3.5185281    -0.2340761    -0.0437344
C           4.7430665    -0.4373528    -0.7044490
C           4.7867381    -1.3310514    -1.9193916
H           4.1470297    -0.9466320    -2.7222729
H           4.4213447    -2.3380585    -1.6874524
H           5.8080458    -1.4137350    -2.3033937
C           5.8939601     0.1960501    -0.2227799
H           6.8384046     0.0343417    -0.7355491
20
300_C8H10O2_0-4-12-9 (-30,) energy =    -461.2970573
C           1.4101713    -1.4389093     0.2695201
H           0.7263424    -0.6277697     0.5287355
H           1.7775256    -1.9061208     1.1904891
H           0.8873330    -2.1871107    -0.3320831
O           2.4873483    -0.9869612    -0.5502558
C           5.8423433     1.0454695     0.8801748
H           6.7296658     1.5628821     1.2330346
C           4.6349708     1.1963543     1.5566821
H           4.5697624     1.8386263     2.4341523
C           3.4823459     0.5429543     1.1120039
O           2.2716347     0.7240075     1.7424423
H           2.4108879     1.3206031     2.4938184
C           3.5442723    -0.2971070    -0.0168138
C           4.7636840    -0.4451674    -0.7056502
C           4.8164379    -1.3364068    -1.9217446
H           4.1437648    -0.9786315    -2.7101788
H           4.4963007    -2.3568977    -1.6818582
H           5.8315146    -1.3776035    -2.3282228
C           5.8979839     0.2341501    -0.2513252
H           6.8346150     0.1122143    -0.7888486
20
300_C8H10O2_0-4-12-9 (-15,) energy =    -461.2964221
C           1.3646110    -1.3905554     0.2279656
H           0.7430478    -0.4994680     0.3437784
H           1.5808736    -1.8074981     1.2169889
H           0.8351283    -2.1344905    -0.3727599
O           2.5597024    -1.1164706    -0.5000048
C           5.8418583     1.0915726     0.8398310
H           6.7129361     1.6524604     1.1653354
C           4.6463809     1.1926091     1.5448344
H           4.5748972     1.8364725     2.4208009
C           3.5123065     0.4822907     1.1405654
O           2.3207378     0.6086719     1.8221871
H           2.4653075     1.2148855     2.5646573
C           3.5792461    -0.3597311     0.0126503
C           4.7892307    -0.4594328    -0.7041415
C           4.8519423    -1.3576871    -1.9144951
H           4.1331776    -1.0462937    -2.6816434
H           4.5988748    -2.3925764    -1.6562116
H           5.8536249    -1.3450131    -2.3546928
C           5.9041300     0.2704384    -0.2840595
H           6.8305796     0.1835099    -0.8455281
20
300_C8H10O2_0-4-12-9 (0,) energy =    -461.2961588
C           1.3324276    -1.3274772     0.1899990
H           0.8044476    -0.3697665     0.1849550
H           1.3942380    -1.6967051     1.2175616
H           0.7897673    -2.0484756    -0.4265755
O           2.6186732    -1.2276770    -0.4162666
C           5.8298615     1.1486720     0.8044067
H           6.6830165     1.7541629     1.0956333
C           4.6525668     1.2018941     1.5440687
H           4.5793205     1.8492780     2.4173097
C           3.5422181     0.4310157     1.1871114
O           2.3788532     0.4895403     1.9255060
H           2.5204647     1.1135921     2.6535453
C           3.6107809    -0.4145698     0.0617315
C           4.8038466    -0.4685739    -0.6884335
C           4.8701224    -1.3759093    -1.8917819
H           4.1035018    -1.1155483    -2.6310091
H           4.6890132    -2.4210611    -1.6144027
H           5.8509355    -1.3104347    -2.3723825
C           5.8975702     0.3128753    -0.3081970
H           6.8099070     0.2601000    -0.8963454
20
300_C8H10O2_0-4-12-9 (15,) energy =    -461.2964220
C           1.3123164    -1.2674508     0.1436330
H           0.8971202    -0.2611859     0.0262681
H           1.2217851    -1.5718056     1.1891173
H           0.7617534    -1.9648497    -0.4929136
O           2.6597650    -1.3376195    -0.3174576
C           5.7987265     1.1952460     0.7672497
H           6.6312132     1.8439932     1.0231328
C           4.6442778     1.2045614     1.5441829
H           4.5704394     1.8559815     2.4143194
C           3.5631219     0.3744113     1.2340352
O           2.4331839     0.3623793     2.0236868
H           2.5626397     1.0043618     2.7383436
C           3.6326779    -0.4751633     0.1119770
C           4.8033497    -0.4875206    -0.6735061
C           4.8729960    -1.4043649    -1.8694777
H           4.0643422    -1.1953463    -2.5794753
H           4.7619701    -2.4548332    -1.5755667
H           5.8291306    -1.2908359    -2.3892798
C           5.8730647     0.3446187    -0.3337056
H           6.7691084     0.3251500    -0.9483430
20
300_C8H10O2_0-4-12-9 (30,) energy =    -461.2970573
C           1.3096437    -1.2132285     0.0939388
H           1.0122954    -0.1864116    -0.1482283
H           1.0764197    -1.4148981     1.1416516
H           0.7635130    -1.9090767    -0.5484230
O           2.6881476    -1.4385607    -0.1985501
C           5.7600029     1.2302852     0.7362183
H           6.5722851     1.9163592     0.9577271
C           4.6322522     1.2023053     1.5520430
H           4.5611861     1.8578171     2.4192071
C           3.5810795     0.3208750     1.2849616
O           2.4832955     0.2481975     2.1129970
H           2.5977232     0.9006495     2.8208783
C           3.6485401    -0.5317154     0.1659008
C           4.7918321    -0.5087773    -0.6561290
C           4.8603697    -1.4356636    -1.8444735
H           4.0157961    -1.2747223    -2.5243663
H           4.8130630    -2.4867282    -1.5360571
H           5.7890959    -1.2823793    -2.4023924
C           5.8377832     0.3691244    -0.3564775
H           6.7151371     0.3803586    -0.9977277
20
300_C8H10O2_0-4-12-9 (45,) energy =    -461.2976679
C           1.3296185    -1.1592841     0.0289784
H           1.1417522    -0.1728879    -0.4136253
H           0.9787772    -1.1604758     1.0631513
H           0.7951160    -1.9196250    -0.5464945
O           2.7116479    -1.5098200    -0.0646089
C           5.7338329     1.2587361     0.7221317
H           6.5315360     1.9707262     0.9132497
C           4.6367814     1.2009343     1.5786122
H           4.5765891     1.8573843     2.4457494
C           3.6084947     0.2838149     1.3475636
O           2.5383714     0.1672463     2.2027314
H           2.6461292     0.8182611     2.9131868
C           3.6652997    -0.5673893     0.2278267
C           4.7756172    -0.5152624    -0.6335702
C           4.8347192    -1.4465298    -1.8192220
H           3.9613448    -1.3208036    -2.4693344
H           4.8375964    -2.4963721    -1.5037133
H           5.7362890    -1.2633907    -2.4116950
C           5.8035077     0.3969854    -0.3706644
H           6.6587403     0.4351765    -1.0401816
20
300_C8H10O2_0-4-12-9 (60,) energy =    -461.2990861
C           1.3030100    -1.0693277    -0.4888316
H           1.5472345    -0.8664180    -1.5395018
H           0.8579115    -0.1688771    -0.0551776
H           0.5907158    -1.8959021    -0.4369651
O           2.4671515    -1.5081227     0.2240732
C           5.5534373     1.2892551     0.4393902
H           6.3565739     2.0200505     0.4741392
C           4.3231709     1.5906254     1.0188497
H           4.1418055     2.5336432     1.5249876
C           3.2975598     0.6460394     0.9778804
O           2.1131321     0.9325029     1.6148149
H           1.6945214     0.0844217     1.8368523
C           3.4987917    -0.5874767     0.3374004
C           4.7412190    -0.9037689    -0.2319615
C           4.9402845    -2.2367580    -0.9116575
H           4.2766044    -2.3500661    -1.7773843
H           4.7166058    -3.0694285    -0.2356106
H           5.9721047    -2.3437249    -1.2595782
C           5.7663012     0.0465518    -0.1602336
H           6.7339733    -0.1871266    -0.5966018
20
300_C8H10O2_0-4-12-9 (75,) energy =    -461.3019805
C           1.3741341    -1.1130590    -0.5341346
H           1.7296752    -1.1254566    -1.5719007
H           0.9664692    -0.1204366    -0.3110647
H           0.5945919    -1.8683270    -0.4086794
O           2.4288245    -1.4701239     0.3715675
C           5.5432541     1.2953349     0.4418979
H           6.3510380     2.0218940     0.4557495
C           4.3385303     1.5971510     1.0749930
H           4.1828394     2.5374746     1.5943014
C           3.3097729     0.6556888     1.0567109
O           2.1358525     0.9203989     1.7089039
H           1.6783920     0.0670030     1.8078358
C           3.4889022    -0.5686041     0.3946941
C           4.6995916    -0.8863090    -0.2309431
C           4.8704459    -2.2175975    -0.9217610
H           4.1847781    -2.3248286    -1.7713343
H           4.6602589    -3.0502234    -0.2415153
H           5.8912031    -2.3301924    -1.2990980
C           5.7284407     0.0639026    -0.1896296
H           6.6779631    -0.1639242    -0.6668819
20
300_C8H10O2_0-4-12-9 (90,) energy =    -461.3033614
C           1.3998747    -1.2276206    -0.5661153
H           1.8504467    -1.4358482    -1.5437012
H           0.9984065    -0.2065077    -0.5680097
H           0.5926013    -1.9402235    -0.3800164
O           2.3522165    -1.4091352     0.4908306
C           5.5098692     1.3020936     0.4143010
H           6.3289528     2.0160923     0.4046437
C           4.3351241     1.6162724     1.0971932
H           4.2135466     2.5552335     1.6277369
C           3.2935745     0.6892010     1.1077632
O           2.1401281     0.9574369     1.7862881
H           1.6452098     0.1178325     1.8103558
C           3.4330515    -0.5315127     0.4284657
C           4.6127750    -0.8634563    -0.2449514
C           4.7494249    -2.1922285    -0.9486463
H           4.2606073    -2.1837035    -1.9322056
H           4.2889119    -2.9972621    -0.3678427
H           5.8030994    -2.4383748    -1.1119991
C           5.6531756     0.0764809    -0.2381056
H           6.5825053    -0.1604963    -0.7495771
20
300_C8H10O2_0-4-12-9 (105,) energy =    -461.3035709
C           1.5045123    -1.3057288    -0.6148271
H           2.0247918    -1.7146063    -1.4878326
H           1.1473674    -0.2953619    -0.8513785
H           0.6550355    -1.9477515    -0.3691510
O           2.3503029    -1.2965838     0.5414056
C           5.5810528     1.3270656     0.4617082
H           6.4179856     2.0201004     0.4601651
C           4.4321312     1.6411791     1.1869609
H           4.3473375     2.5603797     1.7577085
C           3.3663692     0.7420102     1.1848894
O           2.2374844     1.0124082     1.8978307
H           1.6902356     0.2071532     1.8367472
C           3.4545745    -0.4510459     0.4476685
C           4.6139190    -0.7895094    -0.2583617
C           4.7241185    -2.1033872    -0.9945729
H           4.3445693    -2.0311140    -2.0228356
H           4.1546663    -2.8888883    -0.4881834
H           5.7690810    -2.4225668    -1.0597058
C           5.6758573     0.1266728    -0.2432263
H           6.5881633    -0.1151418    -0.7824988
20
300_C8H10O2_0-4-12-9 (120,) energy =    -461.3026160
C           1.5709588    -1.4031096    -0.6373302
H           2.0913132    -2.0790842    -1.3222847
H           1.3635554    -0.4568312    -1.1525831
H           0.6297930    -1.8651624    -0.3290486
O           2.3178767    -1.1826549     0.5627569
C           5.6361106     1.3329088     0.5309324
H           6.4926532     2.0012089     0.5484318
C           4.5073185     1.6417591     1.2883772
H           4.4548116     2.5342835     1.9035853
C           3.4157273     0.7752564     1.2582666
O           2.3064383     1.0478259     1.9986601
H           1.7089459     0.2886174     1.8630524
C           3.4514040    -0.3805010     0.4562971
C           4.5990765    -0.7240407    -0.2689841
C           4.7000768    -2.0214010    -1.0366368
H           4.2564355    -1.9500408    -2.0385796
H           4.1938912    -2.8362834    -0.5082743
H           5.7490062    -2.3039944    -1.1689825
C           5.6843231     0.1646745    -0.2291368
H           6.5834067    -0.0813693    -0.7883016
20
300_C8H10O2_0-4-12-9 (135,) energy =    -461.3009750
C           1.6075701    -1.5119428    -0.6515332
H           2.0425025    -2.4479180    -1.0133279
H           1.6646605    -0.7534587    -1.4417081
H           0.5596253    -1.6864628    -0.3935524
O           2.2419963    -1.0586428     0.5441968
C           5.6628876     1.3158566     0.5866287
H           6.5419357     1.9530386     0.6271178
C           4.5438132     1.6331682     1.3546725
H           4.5170417     2.5050457     2.0003878
C           3.4236497     0.8076764     1.2908961
O           2.3216666     1.0992402     2.0351782
H           1.6792425     0.3910822     1.8431539
C           3.4163954    -0.3212269     0.4473834
C           4.5552523    -0.6774091    -0.2881095
C           4.6449130    -1.9544961    -1.0935452
H           4.0694135    -1.9119447    -2.0264450
H           4.2806875    -2.8154152    -0.5213792
H           5.6859893    -2.1530206    -1.3648336
C           5.6679576     0.1766188    -0.2158317
H           6.5573497    -0.0795481    -0.7856684
20
300_C8H10O2_0-4-12-9 (150,) energy =    -461.2990026
C           1.6259328    -1.6069199    -0.6125943
H           2.0791539    -2.5926752    -0.7487418
H           1.7368660    -1.0207941    -1.5328491
H           0.5620693    -1.7346127    -0.3964878
O           2.1700792    -0.9185801     0.5076124
C           5.6954801     1.2954231     0.6331963
H           6.5968973     1.8982844     0.6973965
C           4.5792004     1.6324232     1.3967043
H           4.5743467     2.4875637     2.0649407
C           3.4318771     0.8513332     1.2982900
O           2.3330745     1.1703138     2.0373557
H           1.6554294     0.5082819     1.8084426
C           3.3876977    -0.2574585     0.4255262
C           4.5230532    -0.6364539    -0.3071941
C           4.6131640    -1.8954633    -1.1455667
H           3.9720551    -1.8736872    -2.0338012
H           4.3456546    -2.7875827    -0.5674511
H           5.6412097    -2.0310390    -1.4937974
C           5.6636165     0.1789500    -0.1977189
H           6.5484753    -0.0945104    -0.7664488
20
300_C8H10O2_0-4-12-9 (165,) energy =    -461.2971518
C           1.6305074    -1.6915485    -0.5664193
H           2.1425706    -2.6565291    -0.5158144
H           1.7263577    -1.2742082    -1.5755601
H           0.5710649    -1.8419971    -0.3450262
O           2.0977668    -0.7841142     0.4198380
C           5.7199727     1.2525956     0.7094252
H           6.6426968     1.8153949     0.8178112
C           4.5899811     1.6208585     1.4370890
H           4.5929997     2.4620822     2.1227698
C           3.4175888     0.8902633     1.2802321
O           2.3072400     1.2456253     1.9857957
H           1.6077708     0.6209099     1.7225661
C           3.3578186    -0.2058171     0.3889687
C           4.5002824    -0.6075028    -0.3226576
C           4.5891324    -1.8276192    -1.2209888
H           3.9056967    -1.7927118    -2.0751545
H           4.3907429    -2.7574557    -0.6754629
H           5.6024501    -1.9053735    -1.6253448
C           5.6682025     0.1589975    -0.1485779
H           6.5586676    -0.1340317    -0.6983684
20
300_C8H10O2_0-4-12-9 (180,) energy =    -461.2963345
C           1.6599188    -1.7721555    -0.4744176
H           2.1843527    -2.6921798    -0.1969379
H           1.7913008    -1.5788440    -1.5438398
H           0.5944644    -1.8980326    -0.2674297
O           2.0680968    -0.6694455     0.3182150
C           5.7611372     1.2048135     0.7664003
H           6.7015901     1.7268785     0.9175374
C           4.6179609     1.6150438     1.4495841
H           4.6260833     2.4514288     2.1411132
C           3.4252077     0.9326961     1.2412383
O           2.3035225     1.3290049     1.9063445
H           1.5919801     0.7282622     1.6213138
C           3.3588371    -0.1647024     0.3507453
C           4.5048513    -0.5872504    -0.3434062
C           4.5696316    -1.7449463    -1.3243717
H           3.9239296    -1.6017450    -2.1971925
H           4.3061742    -2.7057384    -0.8701759
H           5.5926801    -1.8410631    -1.6989909
C           5.6961782     0.1262123    -0.1088459
H           6.5915361    -0.1885113    -0.6382466
