31
204_C14H14O2S_0-6-14-23 (-165,) energy =   -1090.4912914
C          -0.4506826    -1.6981525     0.2353255
H          -0.3258000    -2.7731954     0.1567758
C          -1.7243014    -1.1481444     0.3340559
H          -2.5964582    -1.7946958     0.3095494
C          -1.8620070     0.2327282     0.4629568
H          -2.8473531     0.6829318     0.5463821
C           0.6872977    -0.8804983     0.2789347
C          -0.7292287     1.0420636     0.4686031
H          -0.8458092     2.1199438     0.5474201
C           0.5708641     0.5228002     0.3508361
C           1.7199500     1.5049415     0.2901885
H           1.3288495     2.5261949     0.2671768
H           2.3319484     1.3629129    -0.6054973
H           2.3896887     1.4251722     1.1516950
S           2.1945214    -1.8516391    -0.0640422
O           2.1197743    -3.0583260     0.7794819
O           2.2641465    -2.0029707    -1.5296149
C           6.0495574     0.3761114     0.9886833
H           6.9794852     0.8858427     1.2258578
C           5.7066446     0.1257420    -0.3390781
H           6.3640396     0.4319671    -1.1474508
C           4.5087043    -0.5271909    -0.6250676
H           4.2144143    -0.7454543    -1.6456258
C           3.6666650    -0.9186798     0.4173012
C           3.9971462    -0.6981302     1.7700674
C           3.1287189    -1.1385867     2.9257869
H           3.5420712    -0.7737852     3.8704969
H           3.0568372    -2.2290310     2.9673567
H           2.1034904    -0.7614746     2.8373339
C           5.2043206    -0.0324651     2.0214194
H           5.4867889     0.1604236     3.0533076
31
204_C14H14O2S_0-6-14-23 (-150,) energy =   -1090.4952699
C          -0.3580226    -1.7139483     0.4275003
H          -0.2100681    -2.7886579     0.4220747
C          -1.6218061    -1.1727683     0.6484621
H          -2.4739426    -1.8294803     0.7966791
C          -1.7759543     0.2117898     0.6750768
H          -2.7533143     0.6526763     0.8512829
C           0.7501028    -0.8773518     0.2513654
C          -0.6748794     1.0373311     0.4540271
H          -0.8087144     2.1161671     0.4482683
C           0.6074329     0.5251664     0.2068615
C           1.7233357     1.4939554    -0.1117325
H           1.3150143     2.5007245    -0.2390766
H           2.2376617     1.2200574    -1.0378919
H           2.4790629     1.5371076     0.6792383
S           2.2501606    -1.7845882    -0.2373488
O           2.1872059    -3.1022051     0.4215169
O           2.3345398    -1.7134072    -1.7085460
C           6.0360851     0.3490421     1.2035225
H           6.9476895     0.8408268     1.5321287
C           5.7846663     0.1746986    -0.1566162
H           6.4957964     0.5230645    -0.8998562
C           4.6078496    -0.4533843    -0.5601641
H           4.3806825    -0.6044580    -1.6097011
C           3.6957445    -0.8999455     0.3976564
C           3.9357364    -0.7615881     1.7801019
C           2.9934676    -1.2706498     2.8461944
H           3.3996762    -1.0659986     3.8408123
H           2.8318069    -2.3475921     2.7451645
H           2.0084742    -0.7939576     2.7808076
C           5.1223494    -0.1147095     2.1508430
H           5.3341149     0.0163505     3.2090298
31
204_C14H14O2S_0-6-14-23 (-135,) energy =   -1090.4985871
C          -0.2603323    -1.6697044     0.6266128
H          -0.0757249    -2.7352362     0.7105427
C          -1.5031195    -1.1288477     0.9496616
H          -2.3076814    -1.7788596     1.2807464
C          -1.6986709     0.2464098     0.8397768
H          -2.6606403     0.6851661     1.0905461
C           0.7815382    -0.8362783     0.2091523
C          -0.6627093     1.0645984     0.3895389
H          -0.8319661     2.1333428     0.2847652
C           0.5940126     0.5514417     0.0405483
C           1.6472386     1.4886714    -0.5023521
H           1.2087503     2.4708124    -0.7011935
H           2.0713207     1.1070664    -1.4357918
H           2.4755180     1.6279739     0.2008037
S           2.2745840    -1.7123002    -0.3395117
O           2.2026909    -3.0777982     0.2116861
O           2.3876488    -1.5205361    -1.7978610
C           6.0054676     0.3225012     1.3725733
H           6.9034049     0.7924894     1.7645840
C           5.7931440     0.2535974    -0.0034593
H           6.5212027     0.6633914    -0.6973583
C           4.6329435    -0.3483890    -0.4868269
H           4.4372069    -0.4183132    -1.5511506
C           3.6977255    -0.8755796     0.4061875
C           3.8984196    -0.8424844     1.8016309
C           2.9370960    -1.4424938     2.8008691
H           3.3192864    -1.3151912     3.8176595
H           2.7894773    -2.5094716     2.6108940
H           1.9496336    -0.9698776     2.7509542
C           5.0692777    -0.2191331     2.2539175
H           5.2503895    -0.1699264     3.3246765
31
204_C14H14O2S_0-6-14-23 (-120,) energy =   -1090.5001992
C          -0.1472774    -1.5637231     0.8037948
H           0.0818146    -2.6081980     0.9843400
C          -1.3635548    -1.0133967     1.2042722
H          -2.0997479    -1.6326078     1.7083489
C          -1.6209271     0.3317096     0.9473883
H          -2.5634580     0.7764842     1.2549754
C           0.8017606    -0.7689818     0.1552094
C          -0.6728801     1.1113564     0.2843644
H          -0.8894216     2.1562655     0.0769883
C           0.5555063     0.5882188    -0.1416096
C           1.5192483     1.4777455    -0.8905165
H           1.0804459     2.4683472    -1.0398751
H           1.7673057     1.0524545    -1.8671140
H           2.4615027     1.6065451    -0.3465526
S           2.2957730    -1.6363236    -0.3999918
O           2.1964084    -3.0252229     0.0836493
O           2.4581462    -1.3758765    -1.8419485
C           5.9653544     0.3140927     1.5396393
H           6.8476634     0.7672556     1.9835482
C           5.7644856     0.3705319     0.1617232
H           6.4861621     0.8623180    -0.4838998
C           4.6241762    -0.2140785    -0.3867254
H           4.4412024    -0.1928953    -1.4553430
C           3.6959564    -0.8492622     0.4422986
C           3.8850912    -0.9392077     1.8374634
C           2.9369935    -1.6519480     2.7726057
H           3.3053414    -1.5931993     3.8007257
H           2.8303051    -2.7045216     2.4958442
H           1.9340098    -1.2115923     2.7490789
C           5.0369116    -0.3321729     2.3560256
H           5.2086753    -0.3792855     3.4283852
31
204_C14H14O2S_0-6-14-23 (-105,) energy =   -1090.4997409
C          -0.0023856    -1.4127786     0.9272555
H           0.2686682    -2.4286739     1.1911678
C          -1.1858527    -0.8423662     1.3927135
H          -1.8412809    -1.4097193     2.0469576
C          -1.5149437     0.4553281     1.0063745
H          -2.4328355     0.9163579     1.3610131
C           0.8375366    -0.6907023     0.0743606
C          -0.6672502     1.1684321     0.1587989
H          -0.9362681     2.1788497    -0.1383707
C           0.5283855     0.6250884    -0.3315358
C           1.3942997     1.4581233    -1.2472191
H           0.9513296     2.4489126    -1.3833444
H           1.5100291     0.9834073    -2.2247903
H           2.4017380     1.5938243    -0.8384111
S           2.3422107    -1.5488996    -0.4658976
O           2.2089433    -2.9553222    -0.0456211
O           2.5692053    -1.2295491    -1.8858691
C           5.9308251     0.3288023     1.6963927
H           6.7930331     0.7704935     2.1886456
C           5.7365521     0.5039049     0.3280483
H           6.4435458     1.0774409    -0.2641603
C           4.6228531    -0.0713078    -0.2811199
H           4.4537675     0.0327345    -1.3470813
C           3.7115485    -0.8148053     0.4753698
C           3.8948434    -1.0221862     1.8593564
C           2.9693591    -1.8401277     2.7281411
H           3.3712302    -1.9116588     3.7428440
H           2.8384599    -2.8484055     2.3273451
H           1.9740009    -1.3862264     2.7944532
C           5.0221040    -0.4243150     2.4397113
H           5.1900466    -0.5650174     3.5044531
31
204_C14H14O2S_0-6-14-23 (-90,) energy =   -1090.4968960
C           0.1724862    -1.2616137     1.1195500
H           0.4914993    -2.2288863     1.4884794
C          -0.9798619    -0.6588827     1.6186603
H          -1.5437444    -1.1396182     2.4126776
C          -1.3982342     0.5571128     1.0822922
H          -2.2948000     1.0425997     1.4581274
C           0.8929054    -0.6619638     0.0809361
C          -0.6660024     1.1557581     0.0581692
H          -1.0008488     2.1046113    -0.3530773
C           0.5011103     0.5798145    -0.4654610
C           1.2447099     1.3174747    -1.5556650
H           0.7384698     2.2621210    -1.7751545
H           1.3085213     0.7265410    -2.4718140
H           2.2733179     1.5481424    -1.2583432
S           2.4117453    -1.5230379    -0.4204918
O           2.2412180    -2.9387508    -0.0476167
O           2.7116939    -1.1674126    -1.8168876
C           5.9157693     0.3054811     1.9287442
H           6.7580089     0.7411099     2.4594617
C           5.6978017     0.6055228     0.5860727
H           6.3664383     1.2725675     0.0499056
C           4.6127418     0.0305640    -0.0713208
H           4.4368954     0.2237824    -1.1234782
C           3.7474451    -0.8349209     0.6082462
C           3.9557881    -1.1663369     1.9646275
C           3.0879780    -2.1035284     2.7710994
H           3.5818208    -2.3509291     3.7152254
H           2.8789497    -3.0264244     2.2267775
H           2.1258616    -1.6380868     3.0159713
C           5.0577698    -0.5688839     2.5940371
H           5.2459465    -0.8092352     3.6373665
31
204_C14H14O2S_0-6-14-23 (-75,) energy =   -1090.4935485
C           0.3198135    -0.8478226     1.3040825
H           0.7001796    -1.7023753     1.8514013
C          -0.7851655    -0.1511865     1.7827619
H          -1.2458273    -0.4405996     2.7226767
C          -1.2925587     0.9107922     1.0358504
H          -2.1563011     1.4675825     1.3889418
C           0.9178544    -0.4911693     0.0897706
C          -0.6951971     1.2572414    -0.1736981
H          -1.1056183     2.0803550    -0.7529446
C           0.4255259     0.5814634    -0.6841705
C           0.9922704     1.0421551    -2.0091619
H           0.3962932     1.8760036    -2.3921769
H           0.9950758     0.2400647    -2.7501405
H           2.0291269     1.3795715    -1.9178136
S           2.3841824    -1.4720652    -0.3552225
O           2.0935250    -2.8672903     0.0136156
O           2.7760092    -1.1414283    -1.7344853
C           5.7743671     0.3150626     2.1854365
H           6.5792239     0.7567403     2.7667279
C           5.4118783     0.8608724     0.9556454
H           5.9294381     1.7287250     0.5576529
C           4.3803930     0.2710757     0.2309041
H           4.1060663     0.6586074    -0.7439147
C           3.7052080    -0.8482744     0.7324012
C           4.0653712    -1.4316237     1.9666147
C           3.4382604    -2.6678201     2.5727238
H           3.9867972    -2.9530999     3.4752551
H           3.4381559    -3.5057424     1.8740990
H           2.3952984    -2.4995442     2.8616257
C           5.1127829    -0.8124067     2.6674268
H           5.4185823    -1.2421856     3.6178751
31
204_C14H14O2S_0-6-14-23 (-60,) energy =   -1090.4929762
C           0.5291833    -0.4707904     1.4200931
H           1.0469706    -1.1506688     2.0886940
C          -0.5725329     0.2415659     1.8806593
H          -0.9107678     0.1193517     2.9053425
C          -1.2348599     1.1040609     1.0073182
H          -2.0994214     1.6692608     1.3446169
C           0.9778614    -0.3189365     0.1026420
C          -0.7911765     1.2388381    -0.3053486
H          -1.3210658     1.9065587    -0.9797663
C           0.3207531     0.5383489    -0.8038693
C           0.7056276     0.7452476    -2.2523571
H           0.0030804     1.4405409    -2.7217762
H           0.6963223    -0.1920923    -2.8143369
H           1.7163658     1.1492715    -2.3543212
S           2.4074272    -1.3510367    -0.3422222
O           2.0485578    -2.7487740    -0.0541694
O           2.8677379    -0.9732780    -1.6885508
C           5.7188919     0.2218185     2.4238806
H           6.5048817     0.6149196     3.0629949
C           5.3103715     0.9301910     1.2943627
H           5.7729725     1.8779348     1.0352032
C           4.3036584     0.4027304     0.4921154
H           3.9878171     0.9267259    -0.4037602
C           3.7009373    -0.8178782     0.8191182
C           4.1049056    -1.5622911     1.9470750
C           3.5555999    -2.9139477     2.3500349
H           4.0148498    -3.2304803     3.2913509
H           3.7609465    -3.6705036     1.5882162
H           2.4701626    -2.9078264     2.4813921
C           5.1254306    -1.0000254     2.7320560
H           5.4631067    -1.5501630     3.6066354
31
204_C14H14O2S_0-6-14-23 (-45,) energy =   -1090.4935714
C           0.7253781    -0.1787945     1.4374293
H           1.3800141    -0.6892408     2.1357861
C          -0.4195450     0.4556890     1.9093699
H          -0.6592463     0.4283076     2.9682239
C          -1.2491816     1.1186871     1.0061762
H          -2.1478148     1.6207151     1.3540977
C           1.0516266    -0.1405765     0.0772909
C          -0.9296542     1.1328964    -0.3493599
H          -1.5887706     1.6428491    -1.0472399
C           0.2168999     0.5031277    -0.8601798
C           0.4624484     0.5498932    -2.3516907
H          -0.3800823     1.0411993    -2.8477225
H           0.5785931    -0.4500598    -2.7792013
H           1.3796500     1.0932210    -2.5931809
S           2.5169256    -1.0888728    -0.4308770
O           2.1857893    -2.5208840    -0.3473960
O           3.0137168    -0.5308359    -1.7007174
C           5.7560273     0.1453372     2.5793960
H           6.5296589     0.4563112     3.2762611
C           5.4302913     0.9479220     1.4866149
H           5.9459755     1.8880958     1.3148105
C           4.4376910     0.5263764     0.6071060
H           4.1832544     1.1223273    -0.2625854
C           3.7691288    -0.6841722     0.8231629
C           4.0872514    -1.5220087     1.9128276
C           3.4532468    -2.8673839     2.1946045
H           3.8170544    -3.2520790     3.1521210
H           3.6957852    -3.5909604     1.4115904
H           2.3615545    -2.8213962     2.2327096
C           5.0949128    -1.0648621     2.7778825
H           5.3668269    -1.6878281     3.6261588
31
204_C14H14O2S_0-6-14-23 (-30,) energy =   -1090.4950037
C           0.8649082     0.0493916     1.4699658
H           1.6155842    -0.2925428     2.1735460
C          -0.3254212     0.5943288     1.9468374
H          -0.5032020     0.6578724     3.0163458
C          -1.2776593     1.0512733     1.0384076
H          -2.2108709     1.4800290     1.3931892
C           1.1088473    -0.0214098     0.0953421
C          -1.0370575     0.9513429    -0.3310481
H          -1.7914942     1.2982074    -1.0325174
C           0.1480976     0.4067292    -0.8457982
C           0.3187680     0.2985265    -2.3439524
H          -0.6088061     0.5889116    -2.8461295
H           0.5680966    -0.7226544    -2.6495636
H           1.1309417     0.9366236    -2.7020769
S           2.6260600    -0.8395184    -0.4769900
O           2.3535740    -2.2810689    -0.6119740
O           3.1256579    -0.0885244    -1.6433020
C           5.8093083     0.0025317     2.7184669
H           6.5743135     0.2163713     3.4600243
C           5.5953437     0.8806615     1.6571418
H           6.1903442     1.7833749     1.5549733
C           4.6105047     0.5856091     0.7180906
H           4.4369160     1.2401178    -0.1286709
C           3.8434718    -0.5772069     0.8451486
C           4.0463863    -1.4898915     1.9025774
C           3.2899368    -2.7881235     2.0826723
H           3.5560188    -3.2415566     3.0422126
H           3.5258509    -3.4951027     1.2825850
H           2.2052322    -2.6511417     2.0555123
C           5.0464378    -1.1589550     2.8299627
H           5.2302463    -1.8408855     3.6562892
31
204_C14H14O2S_0-6-14-23 (-15,) energy =   -1090.4966847
C           0.9839641     0.2760412     1.4454718
H           1.7990139     0.0919242     2.1361908
C          -0.2349450     0.7530507     1.9281195
H          -0.3653269     0.9234367     2.9927845
C          -1.2731821     1.0049369     1.0351335
H          -2.2284640     1.3763660     1.3957954
C           1.1622375     0.0668884     0.0763908
C          -1.0896688     0.7758973    -0.3288695
H          -1.9081297     0.9672935    -1.0182164
C           0.1195867     0.2967740    -0.8474041
C           0.2537892     0.0513458    -2.3322924
H          -0.7109110     0.1949586    -2.8273785
H           0.5989538    -0.9672077    -2.5376881
H           0.9858292     0.7291849    -2.7809497
S           2.7231408    -0.6220837    -0.5411580
O           2.5138456    -2.0501507    -0.8417333
O           3.2046364     0.2727503    -1.6106482
C           5.8641982    -0.1059969     2.7579339
H           6.6242105     0.0254505     3.5234409
C           5.7334781     0.8280462     1.7315170
H           6.3884322     1.6929114     1.6824809
C           4.7529481     0.6404098     0.7599175
H           4.6371930     1.3396813    -0.0604936
C           3.9110737    -0.4739369     0.8218122
C           4.0273438    -1.4410137     1.8431778
C           3.1682071    -2.6809798     1.9490488
H           3.3702767    -3.1944787     2.8937775
H           3.3673835    -3.3690973     1.1231993
H           2.0989767    -2.4515579     1.9063932
C           5.0229409    -1.2174108     2.8055750
H           5.1399748    -1.9424733     3.6069683
31
204_C14H14O2S_0-6-14-23 (0,) energy =   -1090.4976818
C           1.0684109     0.4744278     1.4245465
H           1.9246392     0.4266360     2.0878928
C          -0.1677604     0.8935542     1.9183819
H          -0.2677669     1.1617335     2.9660522
C          -1.2603747     0.9657029     1.0584972
H          -2.2289619     1.2903184     1.4287281
C           1.2033737     0.1315517     0.0779975
C          -1.1130034     0.6215296    -0.2859084
H          -1.9706127     0.6822806    -0.9511256
C           0.1114292     0.1964739    -0.8145869
C           0.2170934    -0.1644770    -2.2777529
H          -0.7476350    -0.0275346    -2.7743228
H           0.5329322    -1.2047116    -2.4055652
H           0.9626943     0.4571096    -2.7836367
S           2.8059199    -0.4195489    -0.5694549
O           2.6656684    -1.8154934    -1.0246524
O           3.2689451     0.6033388    -1.5265746
C           5.8718553    -0.2160480     2.8293216
H           6.6167057    -0.1617381     3.6187258
C           5.8119013     0.7762511     1.8524616
H           6.5070927     1.6104320     1.8662501
C           4.8486804     0.6881369     0.8493233
H           4.7828650     1.4364227     0.0673573
C           3.9565833    -0.3873465     0.8305169
C           3.9998801    -1.4110404     1.8010448
C           3.0737797    -2.6053906     1.8162854
H           3.2363509    -3.1941613     2.7238418
H           3.2409102    -3.2434350     0.9444818
H           2.0199170    -2.3093234     1.7871350
C           4.9779055    -1.2868401     2.7977494
H           5.0386204    -2.0569016     3.5625740
31
204_C14H14O2S_0-6-14-23 (15,) energy =   -1090.4978539
C           1.1254258     0.6766120     1.3765661
H           2.0099381     0.7668359     1.9974425
C          -0.1186279     1.0509416     1.8844204
H          -0.1967962     1.4271707     2.9002188
C          -1.2482667     0.9422947     1.0770722
H          -2.2241199     1.2302070     1.4584196
C           1.2309614     0.1860068     0.0730199
C          -1.1276451     0.4701488    -0.2301338
H          -2.0128543     0.4001280    -0.8571821
C           0.1050636     0.0849235    -0.7718955
C           0.1783915    -0.3992619    -2.2013039
H          -0.7942129    -0.2856708    -2.6886791
H           0.4784176    -1.4500569    -2.2506676
H           0.9196271     0.1673389    -2.7744638
S           2.8620514    -0.2429952    -0.5940797
O           2.7827531    -1.5913830    -1.1865162
O           3.3086590     0.8840928    -1.4340887
C           5.8493183    -0.3499905     2.8768874
H           6.5769206    -0.3715975     3.6837683
C           5.8503911     0.6993360     1.9597953
H           6.5764639     1.5031551     2.0376940
C           4.9075173     0.7085285     0.9331933
H           4.8852197     1.5052800     0.1977747
C           3.9763341    -0.3280116     0.8321613
C           3.9578852    -1.4077408     1.7404818
C           2.9855129    -2.5613976     1.6611728
H           3.1158361    -3.2236040     2.5219979
H           3.1344537    -3.1374028     0.7439335
H           1.9451037    -2.2189311     1.6512969
C           4.9156075    -1.3809665     2.7630981
H           4.9282213    -2.1957587     3.4825671
31
204_C14H14O2S_0-6-14-23 (30,) energy =   -1090.4974542
C           1.1839154     0.9182716     1.2898447
H           2.0865311     1.1555325     1.8430045
C          -0.0612256     1.2502250     1.8196963
H          -0.1244617     1.7449020     2.7844338
C          -1.2134452     0.9471311     1.0967704
H          -2.1925028     1.1987856     1.4951738
C           1.2737962     0.2724095     0.0528196
C          -1.1118033     0.3274043    -0.1477887
H          -2.0144704     0.1072128    -0.7120458
C           0.1243360    -0.0208466    -0.7109207
C           0.1562424    -0.6613843    -2.0795739
H          -0.8539835    -0.6951216    -2.4981487
H           0.5582695    -1.6770991    -2.0394564
H           0.7948599    -0.1024920    -2.7712528
S           2.9293250    -0.0464086    -0.6181914
O           2.9111168    -1.3279811    -1.3469713
O           3.3681645     1.1738424    -1.3190209
C           5.8029996    -0.4643560     2.9255748
H           6.5039119    -0.5599285     3.7504998
C           5.8579923     0.6447648     2.0837061
H           6.5999741     1.4223755     2.2393034
C           4.9486332     0.7488294     1.0319956
H           4.9674541     1.5949486     0.3535978
C           3.9970405    -0.2538239     0.8316979
C           3.9243133    -1.3918442     1.6622119
C           2.9246127    -2.5083746     1.4730687
H           3.0333987    -3.2517999     2.2679847
H           3.0624515    -2.9997016     0.5061457
H           1.8935955    -2.1377056     1.4962426
C           4.8490426    -1.4605532     2.7125605
H           4.8192418    -2.3228585     3.3738411
31
204_C14H14O2S_0-6-14-23 (45,) energy =   -1090.4970266
C           1.2212519     1.1836034     1.1691614
H           2.1238361     1.5739446     1.6284844
C          -0.0212475     1.4847868     1.7184033
H          -0.0865800     2.1092172     2.6044861
C          -1.1723007     0.9814290     1.1130009
H          -2.1520111     1.2055061     1.5260730
C           1.3164262     0.3719321     0.0325044
C          -1.0690759     0.1944218    -0.0315519
H          -1.9730238    -0.1822009    -0.5033281
C           0.1675346    -0.1309026    -0.6124643
C           0.1790832    -0.9715590    -1.8694897
H          -0.8483598    -1.1634842    -2.1931262
H           0.6826690    -1.9290391    -1.7115616
H           0.7124412    -0.4783985    -2.6868898
S           2.9902947     0.1300769    -0.6278568
O           3.0109897    -1.0698075    -1.4830632
O           3.4359821     1.4218718    -1.1784636
C           5.7314285    -0.6086288     2.9702801
H           6.3987876    -0.7781929     3.8109645
C           5.8312911     0.5617823     2.2205669
H           6.5754246     1.3143014     2.4644967
C           4.9644842     0.7607649     1.1467548
H           5.0193265     1.6567616     0.5377771
C           4.0093480    -0.2088433     0.8330826
C           3.8933588    -1.4069907     1.5676627
C           2.8905444    -2.4910009     1.2505952
H           2.9639119    -3.3006087     1.9823660
H           3.0584226    -2.9016575     0.2510772
H           1.8628650    -2.1104459     1.2713548
C           4.7758091    -1.5716923     2.6432604
H           4.7110303    -2.4830323     3.2323959
31
204_C14H14O2S_0-6-14-23 (60,) energy =   -1090.4967004
C           1.1508841     1.4764330     1.0325280
H           2.0291692     2.0152581     1.3734309
C          -0.0906665     1.7432273     1.5989896
H          -0.1818642     2.4856380     2.3862441
C          -1.2102691     1.0525145     1.1350003
H          -2.1901607     1.2472732     1.5622926
C           1.2804201     0.5152562     0.0218285
C          -1.0766393     0.1170180     0.1124941
H          -1.9587006    -0.4027498    -0.2525944
C           0.1618026    -0.1803792    -0.4821210
C           0.1923613    -1.1875914    -1.6107231
H          -0.8242282    -1.5347609    -1.8188551
H           0.8130984    -2.0549946    -1.3710517
H           0.6095166    -0.7597530    -2.5256238
S           2.9645992     0.3380278    -0.6345719
O           3.0018975    -0.7610900    -1.6142922
O           3.4117394     1.6851348    -1.0282458
C           5.6424811    -0.7376956     2.9314616
H           6.2925698    -0.9825583     3.7670937
C           5.7516539     0.4974364     2.2957570
H           6.4867957     1.2264616     2.6238855
C           4.9069167     0.7926450     1.2268017
H           4.9717725     1.7414165     0.7053131
C           3.9627034    -0.1455582     0.8026056
C           3.8391998    -1.4069093     1.4205358
C           2.8504090    -2.4613760     0.9841276
H           2.9349860    -3.3472988     1.6199489
H           3.0226759    -2.7563064    -0.0548461
H           1.8181858    -2.0986581     1.0510648
C           4.6996149    -1.6688665     2.4946998
H           4.6270971    -2.6318084     2.9940131
31
204_C14H14O2S_0-6-14-23 (75,) energy =   -1090.4951813
C           1.0694006     1.7068766     0.8798434
H           1.9092500     2.3523795     1.1133598
C          -0.1880633     1.9785628     1.4075960
H          -0.3303342     2.8331200     2.0624133
C          -1.2578577     1.1498871     1.0708968
H          -2.2494633     1.3441572     1.4705381
C           1.2697018     0.5980269     0.0467088
C          -1.0627028     0.0839902     0.1965782
H          -1.9117787    -0.5309164    -0.0904945
C           0.1918908    -0.2185635    -0.3607419
C           0.2600207    -1.3289109    -1.3874766
H          -0.7339099    -1.7685308    -1.5145243
H           0.9540158    -2.1241115    -1.1102674
H           0.6011271    -0.9510467    -2.3545814
S           2.9670912     0.4485866    -0.5870696
O           3.0026781    -0.5700746    -1.6505168
O           3.4283141     1.8188577    -0.8680730
C           5.6459653    -0.8633508     2.9104164
H           6.2972052    -1.1563874     3.7294821
C           5.7225862     0.4203903     2.3747384
H           6.4340378     1.1422964     2.7649427
C           4.8768099     0.7741554     1.3251864
H           4.9222135     1.7620482     0.8807605
C           3.9613779    -0.1516721     0.8150957
C           3.8708727    -1.4591518     1.3347668
C           2.9112474    -2.5054347     0.8247232
H           3.0789780    -3.4567888     1.3375518
H           3.0302721    -2.6603026    -0.2507839
H           1.8704853    -2.2111524     1.0036397
C           4.7329731    -1.7811029     2.3916912
H           4.6842279    -2.7827937     2.8112374
31
204_C14H14O2S_0-6-14-23 (90,) energy =   -1090.4967955
C           0.2311968    -1.4824861    -0.4328703
H           0.6858279    -2.4669555    -0.4498854
C          -0.7038199    -1.1089780    -1.3949407
H          -0.9749986    -1.8000474    -2.1875324
C          -1.2848481     0.1564152    -1.3234371
H          -2.0175004     0.4637310    -2.0648388
C           0.5724363    -0.5968804     0.5949602
C          -0.9265448     1.0359986    -0.3023512
H          -1.3843775     2.0209813    -0.2602494
C           0.0142525     0.6959436     0.6815071
C           0.3604914     1.7120507     1.7462247
H          -0.1252072     2.6660731     1.5204417
H           1.4390334     1.8838843     1.8158979
H           0.0389421     1.3767178     2.7355388
S           1.8013848    -1.2209620     1.7715127
O           1.6088017    -0.5462943     3.0680338
O           1.7327486    -2.6936485     1.7110920
C           5.8997786    -0.0034443     0.0886465
H           6.8762850     0.2755252    -0.2976716
C           4.7429478     0.3792759    -0.5846986
H           4.8008610     0.9590140    -1.5012857
C           3.4972795     0.0110506    -0.0743016
H           2.5944381     0.3036631    -0.5979005
C           3.4175783    -0.7356830     1.1024910
C           4.5753760    -1.1342487     1.8056390
C           4.5307897    -1.9414577     3.0819012
H           5.5426942    -2.1122268     3.4599535
H           4.0494210    -2.9106729     2.9172075
H           3.9504976    -1.4273238     3.8546292
C           5.8075564    -0.7485350     1.2651565
H           6.7153984    -1.0431873     1.7854885
31
204_C14H14O2S_0-6-14-23 (105,) energy =   -1090.4978549
C           0.0550017    -1.5732769    -0.4582835
H           0.4200919    -2.5933489    -0.5052389
C          -0.9383961    -1.1226171    -1.3259509
H          -1.3540416    -1.7931775    -2.0722440
C          -1.3887089     0.1920018    -1.2217450
H          -2.1618771     0.5595237    -1.8911173
C           0.5851474    -0.7107011     0.5046134
C          -0.8503478     1.0442150    -0.2565965
H          -1.2129301     2.0665001    -0.1850197
C           0.1456885     0.6241565     0.6353201
C           0.6802485     1.5946020     1.6629538
H           0.2546471     2.5887216     1.4975791
H           1.7711466     1.6805399     1.6157175
H           0.4368839     1.2678439     2.6772399
S           1.8213683    -1.4395481     1.6102841
O           1.5677478    -0.9407758     2.9745316
O           1.8176896    -2.8947204     1.3665749
C           5.8969641     0.1229971     0.1810306
H           6.8680095     0.4803524    -0.1505011
C           4.7574788     0.3869206    -0.5746939
H           4.8243122     0.9485290    -1.5018839
C           3.5186721    -0.0803859    -0.1346896
H           2.6290532     0.1139563    -0.7232474
C           3.4268725    -0.8003531     1.0582660
C           4.5680853    -1.0907389     1.8365679
C           4.5151677    -1.8855976     3.1202608
H           5.5257430    -2.0588557     3.5010245
H           4.0317193    -2.8555995     2.9651400
H           3.9347542    -1.3623423     3.8862377
C           5.7948956    -0.6079039     1.3652562
H           6.6901492    -0.8164933     1.9455834
31
204_C14H14O2S_0-6-14-23 (120,) energy =   -1090.4971712
C          -0.1392367    -1.5631416    -0.4600867
H           0.1411447    -2.6079039    -0.5382760
C          -1.1908139    -1.0391566    -1.2103479
H          -1.7457524    -1.6802523    -1.8888952
C          -1.5200999     0.3079267    -1.0752831
H          -2.3365032     0.7318233    -1.6538020
C           0.5782601    -0.7370056     0.4081518
C          -0.8112351     1.1176208    -0.1865770
H          -1.0884080     2.1630713    -0.0773283
C           0.2433535     0.6220882     0.5913707
C           0.9438859     1.5380970     1.5672515
H           0.4660006     2.5218542     1.5722045
H           1.9991971     1.6782052     1.3069705
H           0.9163197     1.1259150     2.5795569
S           1.8104240    -1.5828420     1.4357352
O           1.5059806    -1.2634313     2.8437669
O           1.8453263    -2.9952018     1.0139024
C           5.8726747     0.2176563     0.2815322
H           6.8398812     0.6309422     0.0089991
C           4.7801696     0.3664295    -0.5701703
H           4.8810618     0.8901565    -1.5162180
C           3.5478164    -0.1714458    -0.2015695
H           2.6938293    -0.0678390    -0.8626905
C           3.4096518    -0.8389326     1.0182215
C           4.5059389    -1.0259891     1.8860912
C           4.4235965    -1.7876705     3.1886104
H           5.4227640    -1.9051620     3.6181727
H           3.9935465    -2.7838609     3.0421991
H           3.7844922    -1.2740323     3.9122772
C           5.7294705    -0.4734841     1.4843840
H           6.5906547    -0.5979552     2.1359650
31
204_C14H14O2S_0-6-14-23 (135,) energy =   -1090.4948336
C          -0.2565842    -1.5691577    -0.5904091
H          -0.0556287    -2.6179049    -0.7814984
C          -1.3468417    -0.9281805    -1.1757594
H          -2.0164750    -1.4827987    -1.8264754
C          -1.5667557     0.4223291    -0.9127846
H          -2.4113679     0.9375609    -1.3622035
C           0.6153950    -0.8555926     0.2363099
C          -0.7135743     1.1147446    -0.0531687
H          -0.9089113     2.1613155     0.1670523
C           0.3823771     0.4967477     0.5635656
C           1.2251169     1.2879793     1.5367417
H           0.7264279     2.2289675     1.7865687
H           2.2095934     1.5304938     1.1215139
H           1.3872058     0.7301523     2.4638394
S           1.8577213    -1.8765408     1.0813948
O           1.4970872    -1.9118850     2.5111024
O           1.9667225    -3.1399023     0.3315290
C           5.8230827     0.3139622     0.3635955
H           6.7634812     0.8240761     0.1736666
C           4.8808067     0.1741152    -0.6552574
H           5.0744124     0.5652858    -1.6496582
C           3.6855731    -0.4852412    -0.3851748
H           2.9462429    -0.6091389    -1.1708798
C           3.4231644    -0.9829095     0.8968046
C           4.3680350    -0.8777739     1.9374109
C           4.1873053    -1.4322687     3.3324742
H           5.0979781    -1.2649059     3.9154809
H           3.9767405    -2.5054191     3.3210139
H           3.3463873    -0.9632452     3.8501098
C           5.5646138    -0.2103696     1.6279540
H           6.3122336    -0.1080728     2.4103241
31
204_C14H14O2S_0-6-14-23 (150,) energy =   -1090.4909928
C          -0.3336441    -1.6446264    -0.5157984
H          -0.1692710    -2.6933665    -0.7395166
C          -1.5004323    -1.0071184    -0.9287442
H          -2.2642571    -1.5666837    -1.4605964
C          -1.6728695     0.3472640    -0.6504695
H          -2.5744893     0.8635711    -0.9685980
C           0.6664501    -0.9305520     0.1548455
C          -0.6932949     1.0396335     0.0587793
H          -0.8481886     2.0890492     0.2968008
C           0.4841098     0.4225827     0.5073058
C           1.4474359     1.2339273     1.3433343
H           0.9838418     2.1837097     1.6256242
H           2.3751186     1.4600056     0.8079539
H           1.7199992     0.7107320     2.2651264
S           1.9942590    -2.0094299     0.7831035
O           1.6529755    -2.3576994     2.1740937
O           2.1657588    -3.0815126    -0.2126475
C           5.8677236     0.4212332     0.4864423
H           6.7868952     0.9924811     0.3889222
C           5.0867238     0.1482097    -0.6368999
H           5.3869460     0.4948649    -1.6212684
C           3.9183349    -0.5906343    -0.4820847
H           3.3082853    -0.8321537    -1.3472716
C           3.5193347    -1.0332033     0.7856465
C           4.2991493    -0.7893162     1.9343317
C           3.9746227    -1.2632305     3.3333689
H           4.7594318    -0.9358896     4.0220050
H           3.8953504    -2.3519286     3.3841978
H           3.0153254    -0.8754177     3.6875273
C           5.4770611    -0.0485523     1.7380676
H           6.1024910     0.1581574     2.6026625
31
204_C14H14O2S_0-6-14-23 (165,) energy =   -1090.4879639
C          -0.4299460    -1.6470762    -0.2850206
H          -0.2900356    -2.6971233    -0.5190838
C          -1.6702567    -1.0498074    -0.4815397
H          -2.5030223    -1.6402221    -0.8520455
C          -1.8248344     0.3071760    -0.2032547
H          -2.7839427     0.7948373    -0.3543455
C           0.6577399    -0.8994985     0.1890554
C          -0.7429960     1.0410559     0.2743771
H          -0.8718476     2.0981346     0.4926793
C           0.5206811     0.4680722     0.4984735
C           1.6096311     1.3647490     1.0449711
H           1.2056695     2.3657172     1.2221355
H           2.4542368     1.4628211     0.3566879
H           2.0073220     0.9998043     1.9962911
S           2.1076000    -1.9862790     0.4455553
O           1.8811028    -2.7214538     1.7023584
O           2.2591013    -2.7424825    -0.8107723
C           5.9752665     0.4627738     0.6315262
H           6.8989673     1.0347864     0.6517342
C           5.3773478     0.1363826    -0.5851025
H           5.8276574     0.4416215    -1.5249783
C           4.1972626    -0.6023699    -0.5831520
H           3.7276047    -0.8959714    -1.5157011
C           3.6118446    -0.9946508     0.6263719
C           4.2029690    -0.6922513     1.8709759
C           3.6628914    -1.1117175     3.2201882
H           4.2494628    -0.6401946     4.0144615
H           3.7101344    -2.1967506     3.3441824
H           2.6123738    -0.8403050     3.3562399
C           5.3955213     0.0469691     1.8289858
H           5.8796426     0.2967457     2.7695818
31
204_C14H14O2S_0-6-14-23 (180,) energy =   -1090.4882351
C          -0.4105002    -1.7293611    -0.0451875
H          -0.2781412    -2.7909740    -0.2269808
C          -1.6853341    -1.1767093    -0.0799167
H          -2.5433539    -1.8065510    -0.2952491
C          -1.8426316     0.1875090     0.1604254
H          -2.8296416     0.6412029     0.1389907
C           0.7092339    -0.9336997     0.2407710
C          -0.7250489     0.9750673     0.4179972
H          -0.8546355     2.0408596     0.5878787
C           0.5802123     0.4527758     0.4553073
C           1.7131590     1.4257337     0.7013952
H           1.3160144     2.4438724     0.7470525
H           2.4651964     1.3973523    -0.0918904
H           2.2338476     1.2344932     1.6441973
S           2.2254563    -1.9533901     0.1455347
O           2.1032277    -2.9956430     1.1801786
O           2.3389053    -2.3610174    -1.2671844
C           6.0751715     0.4136724     0.8663638
H           7.0025611     0.9582849     1.0218987
C           5.6490432     0.1102116    -0.4256627
H           6.2380046     0.4079736    -1.2881233
C           4.4571490    -0.5898064    -0.6039198
H           4.1065608    -0.8586544    -1.5940654
C           3.7005394    -0.9714926     0.5069970
C           4.1152574    -0.6930707     1.8258474
C           3.3535508    -1.1117929     3.0629941
H           3.7929534    -0.6446549     3.9493969
H           3.3755749    -2.1978493     3.1869753
H           2.2961604    -0.8310699     3.0178288
C           5.3174542     0.0133678     1.9675830
H           5.6658647     0.2485484     2.9700874
