29
128_C15H12N2_8-7-24-25 (-165,) energy =    -688.3219503
C           5.8764487     0.8552912    -0.1351303
H           6.7484147     1.2830679    -0.6225142
C           6.0199586    -0.1536711     0.8163462
H           7.0033995    -0.5241639     1.0914548
C           4.8785331    -0.7076730     1.3839328
H           4.9560611    -1.5325637     2.0849306
C           3.5912145    -0.2603053     1.0424426
C           3.4385525     0.8540048     0.1706549
C           4.6092076     1.3343321    -0.4506079
H           4.5402834     2.1735735    -1.1334518
C           1.2460096    -2.3229746     2.8254815
H           0.8957732    -2.7853891     3.7384800
N           2.3375548    -1.4853343     2.8232867
C           2.4867144    -1.0925880     1.5681678
N           1.5401573    -1.6747367     0.7628317
H           1.4241930    -1.5046118    -0.2256415
C           0.7302413    -2.4533497     1.5596630
H          -0.1014613    -3.0138781     1.1599895
C          -0.3884599     2.5056887    -1.0364586
H          -1.3469440     2.9096547    -1.3506773
C           0.7474554     2.6791048    -1.8270551
H           0.6799791     3.2109133    -2.7725755
C           1.9745384     2.1569058    -1.4234119
H           2.8213662     2.2710318    -2.0907779
C           2.1214815     1.4618254    -0.2049221
C           0.9539029     1.2768727     0.5630065
H           1.0118366     0.7807489     1.5240234
C          -0.2736936     1.8023502     0.1624154
H          -1.1434685     1.6599836     0.7983353
29
128_C15H12N2_8-7-24-25 (-150,) energy =    -688.3274026
C           5.8775349     0.9633904    -0.0246261
H           6.7523672     1.4362937    -0.4625252
C           6.0181885    -0.0697896     0.9022615
H           7.0038718    -0.4147667     1.2018854
C           4.8808242    -0.6799550     1.4179664
H           4.9637458    -1.5182756     2.1015964
C           3.5891369    -0.2674630     1.0462711
C           3.4373536     0.8532551     0.1858750
C           4.6053296     1.4047294    -0.3743718
H           4.5125285     2.2568622    -1.0404054
C           1.3334442    -2.5059490     2.7162436
H           1.0634189    -3.1044517     3.5758857
N           2.4610830    -1.7223850     2.7185430
C           2.4898747    -1.1232872     1.5360950
N           1.4217339    -1.5202357     0.7712748
H           1.2022396    -1.1821584    -0.1542974
C           0.6687058    -2.3966941     1.5189215
H          -0.2362334    -2.8455852     1.1378220
C          -0.3722977     2.4951726    -1.0369412
H          -1.3283945     2.9064555    -1.3489756
C           0.7099305     2.4774698    -1.9172705
H           0.5996060     2.8651127    -2.9266583
C           1.9354893     1.9479079    -1.5149732
H           2.7520842     1.9084053    -2.2292661
C           2.1221265     1.4360613    -0.2162999
C           1.0110618     1.4418537     0.6491999
H           1.1197775     1.0720083     1.6631424
C          -0.2132293     1.9745387     0.2487058
H          -1.0446602     1.9849240     0.9485484
29
128_C15H12N2_8-7-24-25 (-135,) energy =    -688.3307488
C           5.8757397     1.0443425     0.0703823
H           6.7479935     1.5644710    -0.3160004
C           6.0195444    -0.0218676     0.9594523
H           7.0067929    -0.3461363     1.2768835
C           4.8904529    -0.6884879     1.4202737
H           4.9818155    -1.5442890     2.0803942
C           3.5958319    -0.3033203     1.0274278
C           3.4405281     0.8279105     0.1848751
C           4.6001175     1.4530456    -0.3070642
H           4.4865009     2.3170987    -0.9555659
C           1.3872300    -2.6588856     2.5884049
H           1.1657455    -3.3543711     3.3867831
N           2.5466756    -1.9269578     2.5813578
C           2.5007580    -1.1780954     1.4863763
N           1.3458531    -1.4269658     0.7875236
H           1.0636873    -0.9677659    -0.0660205
C           0.6225644    -2.3669406     1.4843392
H          -0.3358357    -2.7247375     1.1392090
C          -0.3473750     2.4944300    -1.0395230
H          -1.2971598     2.9218558    -1.3491968
C           0.6702979     2.2908662    -1.9722038
H           0.5150880     2.5517755    -3.0157891
C           1.8897802     1.7427883    -1.5722866
H           2.6688786     1.5690827    -2.3094079
C           2.1226817     1.3914788    -0.2305644
C           1.0816943     1.5927076     0.6950104
H           1.2406896     1.3397894     1.7388484
C          -0.1351904     2.1432455     0.2959224
H          -0.9179820     2.3032430     1.0326462
29
128_C15H12N2_8-7-24-25 (-120,) energy =    -688.3320126
C           5.8708033     1.1285796     0.1609705
H           6.7371325     1.6935008    -0.1720993
C           6.0227445     0.0213132     0.9976701
H           7.0112727    -0.2897340     1.3245086
C           4.9046755    -0.6987415     1.4003234
H           5.0053470    -1.5773786     2.0280418
C           3.6080826    -0.3303967     0.9956509
C           3.4468016     0.8210476     0.1854147
C           4.5933833     1.5153196    -0.2346443
H           4.4639016     2.3977593    -0.8554590
C           1.4281170    -2.7803816     2.4419617
H           1.2387003    -3.5535341     3.1744891
N           2.6128676    -2.0933716     2.4208848
C           2.5170303    -1.2248771     1.4204938
N           1.2997543    -1.3503699     0.7978040
H           0.9753875    -0.7946662     0.0198726
C           0.5936710    -2.3384230     1.4428525
H          -0.4033581    -2.6211351     1.1400971
C          -0.3388966     2.4833440    -1.0388617
H          -1.2870323     2.9147412    -1.3480932
C           0.6000511     2.0928705    -1.9943954
H           0.3855984     2.2155263    -3.0527734
C           1.8192793     1.5407827    -1.5952905
H           2.5464058     1.2329162    -2.3421139
C           2.1210985     1.3666116    -0.2342327
C           1.1645789     1.7640375     0.7172539
H           1.3861616     1.6445508     1.7739789
C          -0.0513392     2.3177241     0.3185907
H          -0.7733197     2.6260043     1.0701233
29
128_C15H12N2_8-7-24-25 (-105,) energy =    -688.3319951
C           5.8745807     1.1964816     0.2828002
H           6.7367358     1.7974520     0.0069266
C           6.0296455     0.0401732     1.0500526
H           7.0170556    -0.2727682     1.3786454
C           4.9182583    -0.7220279     1.3870316
H           5.0220425    -1.6302172     1.9704300
C           3.6225657    -0.3518001     0.9790130
C           3.4612914     0.8335959     0.2215947
C           4.5986995     1.5810055    -0.1209673
H           4.4639215     2.4906975    -0.7001116
C           1.4529841    -2.8810418     2.2967018
H           1.2825646    -3.7202946     2.9576860
N           2.6589459    -2.2343430     2.2616815
C           2.5315778    -1.2636118     1.3631158
N           1.2694597    -1.2814457     0.8219639
H           0.9196487    -0.6470823     0.1185512
C           0.5713450    -2.3094146     1.4100563
H          -0.4541875    -2.5264994     1.1515311
C          -0.3308053     2.4574426    -1.0366604
H          -1.2810522     2.8773562    -1.3551141
C           0.5222229     1.8651394    -1.9690686
H           0.2394251     1.8220245    -3.0175742
C           1.7452434     1.3278374    -1.5589108
H           2.4099570     0.8690345    -2.2862296
C           2.1313432     1.3685645    -0.2092568
C           1.2645564     1.9713830     0.7181237
H           1.5552023     2.0147358     1.7641040
C           0.0451389     2.5104485     0.3079694
H          -0.6105997     2.9758176     1.0390611
29
128_C15H12N2_8-7-24-25 (-90,) energy =    -688.3317491
C           5.8433058     1.2539844     0.4097665
H           6.6961395     1.8931024     0.1981893
C           6.0112966     0.0385139     1.0762242
H           7.0002231    -0.2831542     1.3916812
C           4.9107197    -0.7666656     1.3380810
H           5.0246114    -1.7135083     1.8538810
C           3.6110372    -0.3887686     0.9468910
C           3.4401364     0.8445286     0.2728233
C           4.5655476     1.6427765     0.0169090
H           4.4211523     2.5873352    -0.5008644
C           1.5025248    -3.0652063     2.0565621
H           1.3813388    -4.0153030     2.5594780
N           2.7291114    -2.4701478     1.9442176
C           2.5317149    -1.3335601     1.2832688
N           1.2009277    -1.1941922     0.9725063
H           0.7889159    -0.4205092     0.4719311
C           0.5340641    -2.2927072     1.4604015
H          -0.5319679    -2.4147927     1.3404181
C          -0.3418433     2.4128405    -1.0878001
H          -1.2897155     2.8159794    -1.4337991
C           0.4330888     1.6171579    -1.9341597
H           0.0914675     1.4000840    -2.9427617
C           1.6519834     1.0999766    -1.4897403
H           2.2549381     0.4817391    -2.1493638
C           2.1141297     1.3675771    -0.1906447
C           1.3272769     2.1728252     0.6491428
H           1.6769152     2.3895801     1.6548817
C           0.1089436     2.6902901     0.2045290
H          -0.4863153     3.3122426     0.8677940
29
128_C15H12N2_8-7-24-25 (-75,) energy =    -688.3319564
C           5.8506844     1.3167604     0.5356858
H           6.6968047     1.9839738     0.3960896
C           6.0292434     0.0480024     1.0907531
H           7.0186346    -0.2859114     1.3915992
C           4.9360552    -0.7900870     1.2699255
H           5.0551638    -1.7737166     1.7106032
C           3.6376575    -0.3946006     0.8952671
C           3.4586154     0.8832158     0.3123350
C           4.5741052     1.7196154     0.1523960
H           4.4261853     2.6973085    -0.2985745
C           1.5275154    -3.1705081     1.7208242
H           1.4095352    -4.2074836     2.0055160
N           2.7649037    -2.6267337     1.5046636
C           2.5574567    -1.3574984     1.1697265
N           1.2121935    -1.0809326     1.1715674
H           0.7923443    -0.1889893     0.9530094
C           0.5443368    -2.2303350     1.5218260
H          -0.5324722    -2.2683781     1.5905380
C          -0.3061517     2.3888733    -1.1582509
H          -1.2503024     2.7739597    -1.5337534
C           0.3868563     1.4091190    -1.8736932
H          -0.0154414     1.0312774    -2.8098840
C           1.5986056     0.9131493    -1.3922043
H           2.1353822     0.1503341    -1.9493262
C           2.1413910     1.3902943    -0.1872734
C           1.4371867     2.3774835     0.5210187
H           1.8482881     2.7553513     1.4535030
C           0.2217971     2.8719534     0.0400654
H          -0.3095730     3.6354452     0.6021380
29
128_C15H12N2_8-7-24-25 (-60,) energy =    -688.3320865
C           5.8046778     1.3688691     0.6456390
H           6.6366081     2.0626405     0.5609500
C           6.0059023     0.0720786     1.1222635
H           6.9985326    -0.2579661     1.4164464
C           4.9280051    -0.7970856     1.2373478
H           5.0610082    -1.7999011     1.6282652
C           3.6267560    -0.4064303     0.8700347
C           3.4267795     0.8948167     0.3464503
C           4.5257369     1.7653697     0.2644307
H           4.3659888     2.7615566    -0.1392870
C           1.5482834    -3.2417714     1.5666211
H           1.4378137    -4.3004396     1.7596724
N           2.7741596    -2.6886012     1.3081097
C           2.5592577    -1.3926622     1.1109228
N           1.2229678    -1.1072285     1.2462120
H           0.7998717    -0.1977556     1.1316593
C           0.5662040    -2.2802711     1.5349195
H          -0.5026773    -2.3172096     1.6825317
C          -0.3033906     2.4200835    -1.1868599
H          -1.2353682     2.8140903    -1.5829371
C           0.2814191     1.2882763    -1.7611516
H          -0.1910910     0.8022253    -2.6106156
C           1.4773849     0.7813311    -1.2543383
H           1.9322633    -0.0944883    -1.7084013
C           2.1135298     1.3959295    -0.1609833
C           1.5180138     2.5366820     0.4022857
H           1.9991750     3.0223577     1.2471973
C           0.3185050     3.0427128    -0.1039691
H          -0.1280049     3.9237948     0.3493618
29
128_C15H12N2_8-7-24-25 (-45,) energy =    -688.3312150
C           5.7648365     1.3962360     0.7484189
H           6.5823177     2.1113876     0.7181217
C           5.9877894     0.0785773     1.1513993
H           6.9825541    -0.2485296     1.4413801
C           4.9239063    -0.8139351     1.2033791
H           5.0695775    -1.8321625     1.5473325
C           3.6205332    -0.4271946     0.8416362
C           3.4019282     0.8917802     0.3671840
C           4.4851875     1.7877053     0.3659817
H           4.3200697     2.7985029     0.0040361
C           1.5792668    -3.3190167     1.4155257
H           1.4746677    -4.3908662     1.5174340
N           2.7867053    -2.7456165     1.1128467
C           2.5678010    -1.4372891     1.0534778
N           1.2501384    -1.1632326     1.3241237
H           0.8260321    -0.2471604     1.3194304
C           0.6067419    -2.3573442     1.5520194
H          -0.4473741    -2.4061323     1.7802654
C          -0.2879432     2.4586515    -1.2249212
H          -1.2040999     2.8661362    -1.6436033
C           0.1882279     1.2156570    -1.6494198
H          -0.3503732     0.6562830    -2.4097716
C           1.3642221     0.6922420    -1.1143999
H           1.7380651    -0.2641301    -1.4677521
C           2.0886278     1.3951699    -0.1330680
C           1.6050494     2.6525354     0.2693936
H           2.1503629     3.2133043     1.0236947
C           0.4261315     3.1753826    -0.2641020
H           0.0675183     4.1445249     0.0725997
29
128_C15H12N2_8-7-24-25 (-30,) energy =    -688.3284818
C           5.7242653     1.4194310     0.8589166
H           6.5288562     2.1490419     0.8904883
C           5.9642899     0.0835411     1.1828113
H           6.9591190    -0.2461015     1.4693388
C           4.9103805    -0.8222277     1.1663333
H           5.0619835    -1.8554717     1.4598093
C           3.6082078    -0.4294541     0.8099083
C           3.3775829     0.9054402     0.3819525
C           4.4472731     1.8151465     0.4730950
H           4.2880610     2.8414773     0.1577569
C           1.5705640    -3.3521430     1.2355614
H           1.4507696    -4.4271257     1.2213264
N           2.7555948    -2.7614101     0.8762824
C           2.5625780    -1.4540879     0.9939299
N           1.2890734    -1.1972810     1.4371508
H           0.8871683    -0.2815721     1.5752979
C           0.6417946    -2.4021786     1.5867428
H          -0.3832520    -2.4653331     1.9197982
C          -0.2970915     2.4702994    -1.2635993
H          -1.2046178     2.8746814    -1.7034745
C           0.0940347     1.1571780    -1.5329784
H          -0.4992176     0.5365744    -2.1993838
C           1.2589613     0.6387848    -0.9704658
H           1.5684274    -0.3693464    -1.2261820
C           2.0579610     1.4100171    -0.1020902
C           1.6651596     2.7424247     0.1256690
H           2.2592841     3.3693671     0.7840824
C           0.4976462     3.2610362    -0.4334034
H           0.2123638     4.2878326    -0.2200880
29
128_C15H12N2_8-7-24-25 (-15,) energy =    -688.3235570
C           5.7036627     1.4351057     0.9725254
H           6.4945955     2.1738096     1.0701529
C           5.9595084     0.0857671     1.2155749
H           6.9534125    -0.2488701     1.4991173
C           4.9136201    -0.8253316     1.1297748
H           5.0690141    -1.8714406     1.3722061
C           3.6137970    -0.4232457     0.7779592
C           3.3738686     0.9261760     0.3954126
C           4.4303485     1.8387416     0.5832683
H           4.2815363     2.8811938     0.3254073
C           1.5577957    -3.3562795     1.0478957
H           1.4047233    -4.4181336     0.9096832
N           2.7143030    -2.7421373     0.6319075
C           2.5742543    -1.4603323     0.9378034
N           1.3696581    -1.2431350     1.5590354
H           1.0149845    -0.3462555     1.8576307
C           0.7048502    -2.4467840     1.6243004
H          -0.2764192    -2.5377428     2.0653016
C          -0.2995970     2.4663834    -1.3059221
H          -1.2033812     2.8589350    -1.7638188
C           0.0155048     1.1110349    -1.4072727
H          -0.6315286     0.4396953    -1.9657370
C           1.1760537     0.6085748    -0.8217170
H           1.4231012    -0.4353487    -0.9750645
C           2.0484189     1.4344892    -0.0804640
C           1.7372414     2.8088428    -0.0454157
H           2.3796361     3.4947877     0.4968706
C           0.5750832     3.3133722    -0.6256200
H           0.3592812     4.3758339    -0.5492311
29
128_C15H12N2_8-7-24-25 (0,) energy =    -688.3173647
C           5.6664820     1.4476066     1.1051588
H           6.4379773     2.1937787     1.2752847
C           5.9431028     0.0917696     1.2721827
H           6.9349701    -0.2449843     1.5598746
C           4.9090471    -0.8226362     1.1126181
H           5.0718887    -1.8785404     1.3039708
C           3.6129183    -0.4175494     0.7534280
C           3.3574544     0.9447395     0.4222718
C           4.3980228     1.8544542     0.7046698
H           4.2496371     2.9125589     0.5296329
C           1.5243583    -3.3473645     0.8048057
H           1.3142447    -4.3671900     0.5118202
N           2.6347973    -2.6843705     0.3342949
C           2.5862262    -1.4762177     0.8716898
N           1.4923896    -1.3544274     1.6925916
H           1.2232609    -0.5196273     2.1929819
C           0.7964589    -2.5422949     1.6458974
H          -0.1134943    -2.6980654     2.2056982
C          -0.3109358     2.4738396    -1.3471693
H          -1.2133160     2.8591396    -1.8138599
C          -0.0976943     1.1014005    -1.2335755
H          -0.8251437     0.3998136    -1.6334007
C           1.0609052     0.6074806    -0.6358338
H           1.2117404    -0.4629292    -0.6439825
C           2.0414886     1.4628733    -0.0864340
C           1.8315849     2.8447845    -0.2855940
H           2.5559071     3.5677482     0.0702084
C           0.6730597     3.3423983    -0.8767888
H           0.5494664     4.4173630    -0.9792028
29
128_C15H12N2_8-7-24-25 (15,) energy =    -688.3192026
C           5.5722668     1.5447816     1.2105821
H           6.3827879     2.2670205     1.2585114
C           5.7038598     0.2930917     1.8071442
H           6.6163061     0.0151285     2.3270047
C           4.6558370    -0.6144382     1.6919638
H           4.7725020    -1.6210413     2.0853050
C           3.4668593    -0.2952840     1.0144549
C           3.2859730     1.0109808     0.4808284
C           4.3918488     1.8802161     0.5539399
H           4.3019945     2.8832270     0.1536392
C           1.2663670    -2.9750416     0.0460276
H           0.7668216    -3.5678895    -0.7084882
N           2.0554722    -1.9037473    -0.2990267
C           2.5097636    -1.4104010     0.8392215
N           2.0453336    -2.1437289     1.9064739
H           2.2230828    -1.9433441     2.8802555
C           1.2382515    -3.1455358     1.4083157
H           0.7427022    -3.8582951     2.0501589
C          -0.3283265     2.5700647    -1.3256866
H          -1.2368619     2.9825772    -1.7560907
C          -0.3867601     1.4824273    -0.4544701
H          -1.3464233     1.0476814    -0.1873964
C           0.7779014     0.9516564     0.0950149
H           0.6865537     0.1361253     0.8001202
C           2.0483131     1.4695053    -0.2244273
C           2.0761750     2.5967739    -1.0690108
H           3.0258084     3.0362895    -1.3548075
C           0.9143353     3.1261088    -1.6268095
H           0.9853323     3.9786258    -2.2972645
29
128_C15H12N2_8-7-24-25 (30,) energy =    -688.3233913
C           5.5060553     1.5712863     1.2885761
H           6.2951615     2.3122367     1.3840252
C           5.6616484     0.2983366     1.8338335
H           6.5747249     0.0244833     2.3549730
C           4.6404947    -0.6338811     1.6744544
H           4.7826909    -1.6496072     2.0348257
C           3.4503388    -0.3199421     0.9961565
C           3.2587422     0.9940796     0.4934024
C           4.3263993     1.9001530     0.6257755
H           4.2004154     2.9114731     0.2531233
C           1.1742173    -2.9071704    -0.0416863
H           0.6053356    -3.4235100    -0.8032946
N           1.9266864    -1.7984880    -0.3444289
C           2.4881761    -1.4217961     0.7913022
N           2.1247171    -2.2668633     1.8151216
H           2.3861511    -2.1643810     2.7851482
C           1.2749485    -3.2184265     1.2923109
H           0.8402200    -3.9976641     1.9000529
C          -0.3275042     2.5448979    -1.3377045
H          -1.2295297     2.9580527    -1.7811237
C          -0.4134684     1.5990356    -0.3144490
H          -1.3853506     1.2795994     0.0526242
C           0.7416838     1.0658984     0.2516681
H           0.6502166     0.3546323     1.0649229
C           2.0176302     1.4522188    -0.1959635
C           2.0838873     2.4276184    -1.2063036
H           3.0523430     2.7419854    -1.5839405
C           0.9290165     2.9569437    -1.7806053
H           1.0148540     3.6925378    -2.5761654
29
128_C15H12N2_8-7-24-25 (45,) energy =    -688.3253675
C           5.4714321     1.6284911     1.3770548
H           6.2389480     2.3852778     1.5146440
C           5.6523169     0.3391635     1.8752454
H           6.5662036     0.0702089     2.3976889
C           4.6582500    -0.6144363     1.6737122
H           4.8237523    -1.6363666     2.0057120
C           3.4666161    -0.3066540     0.9945705
C           3.2626180     1.0127598     0.5180692
C           4.2924512     1.9492729     0.7076302
H           4.1385996     2.9645349     0.3538240
C           1.1386342    -2.8264737    -0.0872843
H           0.5196013    -3.2859906    -0.8461621
N           1.8638841    -1.6910708    -0.3523874
C           2.5032734    -1.4000945     0.7678589
N           2.2143420    -2.3268813     1.7441431
H           2.5349823    -2.2952422     2.7010853
C           1.3333439    -3.2410089     1.2078377
H           0.9433334    -4.0686885     1.7809228
C          -0.3225452     2.5134565    -1.3362935
H          -1.2241037     2.9118268    -1.7940983
C          -0.4058114     1.7342379    -0.1800901
H          -1.3734746     1.5297173     0.2707286
C           0.7483654     1.2195925     0.4051826
H           0.6719118     0.6265111     1.3114274
C           2.0125448     1.4712238    -0.1517621
C           2.0825593     2.2667400    -1.3059298
H           3.0506405     2.4633049    -1.7586708
C           0.9268831     2.7768493    -1.8975338
H           1.0050907     3.3782938    -2.7995257
29
128_C15H12N2_8-7-24-25 (60,) energy =    -688.3254426
C           5.4487454     1.6567567     1.4806067
H           6.1983581     2.4220202     1.6626261
C           5.6456868     0.3526878     1.9327759
H           6.5556509     0.0823441     2.4614332
C           4.6748174    -0.6128413     1.6812696
H           4.8549540    -1.6414580     1.9839261
C           3.4881882    -0.3027664     0.9934996
C           3.2774400     1.0250569     0.5486595
C           4.2764743     1.9783059     0.7984588
H           4.1082992     2.9993820     0.4673738
C           1.1285463    -2.7585609    -0.1586945
H           0.4757690    -3.1659290    -0.9190550
N           1.8353089    -1.6018634    -0.3743598
C           2.5270451    -1.3880038     0.7325840
N           2.2885939    -2.3858274     1.6512758
H           2.6462794    -2.4178122     2.5948598
C           1.3864020    -3.2643436     1.0923556
H           1.0262933    -4.1335445     1.6219420
C          -0.3150531     2.4680434    -1.3321776
H          -1.2186738     2.8473365    -1.8021107
C          -0.3729332     1.8904171    -0.0618269
H          -1.3224075     1.8223613     0.4630197
C           0.7848098     1.4014080     0.5396706
H           0.7337427     0.9571225     1.5299623
C           2.0224153     1.4846383    -0.1152165
C           2.0695125     2.0684165    -1.3886514
H           3.0205708     2.1267607    -1.9112312
C           0.9099748     2.5542141    -1.9939927
H           0.9648273     2.9962607    -2.9855076
29
128_C15H12N2_8-7-24-25 (75,) energy =    -688.3246940
C           5.4059329     1.6787926     1.5847183
H           6.1354291     2.4510032     1.8132337
C           5.6263822     0.3593867     1.9776332
H           6.5351895     0.0850070     2.5063111
C           4.6811394    -0.6151451     1.6696123
H           4.8787053    -1.6513144     1.9332205
C           3.4970315    -0.2990884     0.9795560
C           3.2682344     1.0407054     0.5858535
C           4.2372453     2.0049185     0.8973771
H           4.0532644     3.0345451     0.6029119
C           1.1383346    -2.7167382    -0.2522383
H           0.4729099    -3.0908683    -1.0186628
N           1.8322787    -1.5449997    -0.4232041
C           2.5449341    -1.3810742     0.6792568
N           2.3317595    -2.4254141     1.5512117
H           2.7064253    -2.5009982     2.4856102
C           1.4251559    -3.2819454     0.9666247
H           1.0808549    -4.1786439     1.4596148
C          -0.3277994     2.4418465    -1.3212125
H          -1.2329022     2.8076675    -1.7990176
C          -0.3392412     2.0955727     0.0310710
H          -1.2531637     2.1932684     0.6115256
C           0.8221785     1.6257294     0.6438129
H           0.8112800     1.3598137     1.6977108
C           2.0117677     1.4965067    -0.0857040
C           2.0131124     1.8448072    -1.4424954
H           2.9273543     1.7350879    -2.0191721
C           0.8518381     2.3145876    -2.0561614
H           0.8680816     2.5763197    -3.1110516
29
128_C15H12N2_8-7-24-25 (90,) energy =    -688.3242853
C           5.6996338     0.4400945    -0.7771994
H           6.5266858     0.7704083    -1.3997458
C           5.8803950    -0.5797811     0.1560760
H           6.8523474    -1.0497771     0.2792198
C           4.8091320    -0.9825577     0.9483500
H           4.9646317    -1.7462198     1.7065029
C           3.5386854    -0.3912666     0.8237588
C           3.3521578     0.6399785    -0.1267416
C           4.4461551     1.0371313    -0.9081342
H           4.2971959     1.8254617    -1.6409226
C           0.7524692    -1.0442503     3.0017139
H          -0.0984217    -0.7147950     3.5827370
N           1.4970491    -0.1576562     2.2643713
C           2.4491084    -0.8732548     1.6883363
N           2.3392888    -2.1983997     2.0468752
H           2.9000129    -2.9561795     1.6856019
C           1.2495334    -2.3190718     2.8804547
H           0.9414962    -3.2692888     3.2901524
C          -0.3905532     2.5848775    -0.9945055
H          -1.3273502     3.0838756    -1.2287141
C           0.4910742     3.1456465    -0.0682756
H           0.2413655     4.0819916     0.4240812
C           1.6924459     2.5056160     0.2337418
H           2.3705364     2.9370257     0.9642142
C           2.0302799     1.2953662    -0.3853986
C           1.1427870     0.7430222    -1.3181848
H           1.4003006    -0.1911338    -1.8109354
C          -0.0621254     1.3806567    -1.6179916
H          -0.7408844     0.9377728    -2.3424898
29
128_C15H12N2_8-7-24-25 (105,) energy =    -688.3248998
C           5.7140722     0.5198748    -0.6937067
H           6.5506709     0.8858616    -1.2826270
C           5.8827493    -0.5482988     0.1863462
H           6.8548291    -1.0195639     0.3032167
C           4.7985952    -0.9976603     0.9351087
H           4.9449854    -1.7966954     1.6578075
C           3.5277037    -0.4072043     0.8162669
C           3.3524063     0.6720114    -0.0821860
C           4.4597060     1.1158883    -0.8190776
H           4.3190460     1.9370197    -1.5166042
C           0.7193710    -1.1377296     2.9382430
H          -0.1366873    -0.8275762     3.5223196
N           1.4719063    -0.2263924     2.2405176
C           2.4284455    -0.9227458     1.6486025
N           2.3130926    -2.2598368     1.9571432
H           2.8806582    -3.0046442     1.5799100
C           1.2156302    -2.4085087     2.7762611
H           0.9027589    -3.3722137     3.1491429
C          -0.3905503     2.5967313    -0.9833629
H          -1.3276326     3.0895305    -1.2289986
C           0.5933929     3.2768110    -0.2645196
H           0.4246870     4.3019447     0.0551664
C           1.7966277     2.6440250     0.0488266
H           2.5584795     3.1733129     0.6146198
C           2.0299095     1.3191386    -0.3422935
C           1.0393805     0.6479494    -1.0727663
H           1.2158144    -0.3749090    -1.3953014
C          -0.1629370     1.2799157    -1.3877102
H          -0.9206233     0.7447989    -1.9545205
29
128_C15H12N2_8-7-24-25 (120,) energy =    -688.3255462
C           5.7361892     0.5963168    -0.6085899
H           6.5833018     0.9962442    -1.1591836
C           5.8937152    -0.5092680     0.2260220
H           6.8668080    -0.9774584     0.3462404
C           4.7952225    -0.9980055     0.9278573
H           4.9309325    -1.8228594     1.6230443
C           3.5223183    -0.4137882     0.8044678
C           3.3540810     0.6959291    -0.0596541
C           4.4794085     1.1839009    -0.7419740
H           4.3485663     2.0279283    -1.4134026
C           0.7318515    -1.2283825     2.9208598
H          -0.1081860    -0.9411795     3.5389969
N           1.4886082    -0.2879753     2.2671504
C           2.4218574    -0.9621864     1.6161330
N           2.2887807    -2.3137309     1.8438606
H           2.8388781    -3.0423189     1.4126934
C           1.2026432    -2.4948166     2.6721204
H           0.8802036    -3.4743109     2.9918806
C          -0.3862757     2.6118708    -0.9884660
H          -1.3234371     3.1007780    -1.2411733
C           0.6794020     3.3553556    -0.4810365
H           0.5755838     4.4269876    -0.3314956
C           1.8827041     2.7262608    -0.1599255
H           2.7070374     3.3070838     0.2452561
C           2.0375491     1.3431158    -0.3299806
C           0.9595103     0.6068885    -0.8440599
H           1.0678207    -0.4636102    -0.9944678
C          -0.2405689     1.2346439    -1.1702637
H          -1.0631296     0.6478213    -1.5710116
29
128_C15H12N2_8-7-24-25 (135,) energy =    -688.3250739
C           5.7578028     0.6414531    -0.4996421
H           6.6199625     1.0662869    -1.0065510
C           5.8976934    -0.4835192     0.3114263
H           6.8704194    -0.9452445     0.4564908
C           4.7780757    -0.9969206     0.9600980
H           4.8943442    -1.8339055     1.6440718
C           3.5047655    -0.4217283     0.8054128
C           3.3495717     0.6971398    -0.0518291
C           4.5005989     1.2168283    -0.6686524
H           4.3904124     2.0681289    -1.3339386
C           0.7411612    -1.3019110     2.9342288
H          -0.0689369    -1.0352003     3.5997216
N           1.5134482    -0.3390262     2.3323372
C           2.3999378    -0.9919464     1.6004159
N           2.2229567    -2.3515367     1.7245755
H           2.7437488    -3.0619468     1.2308948
C           1.1563006    -2.5603189     2.5721540
H           0.8073690    -3.5502728     2.8247605
C          -0.3880300     2.6321520    -0.9763556
H          -1.3257935     3.1241372    -1.2205357
C           0.7462226     3.3872309    -0.6784752
H           0.6964064     4.4730141    -0.6808674
C           1.9484057     2.7526981    -0.3665016
H           2.8196786     3.3497070    -0.1116690
C           2.0430824     1.3519258    -0.3434517
C           0.8896441     0.6058452    -0.6347963
H           0.9381712    -0.4784806    -0.6327126
C          -0.3095042     1.2379025    -0.9539769
H          -1.1862798     0.6389523    -1.1860952
29
128_C15H12N2_8-7-24-25 (150,) energy =    -688.3225731
C           5.7931805     0.6936648    -0.4049052
H           6.6656986     1.1468319    -0.8677213
C           5.9246734    -0.4416599     0.3921940
H           6.8992397    -0.8877510     0.5696000
C           4.7883552    -0.9816476     0.9870824
H           4.8883662    -1.8255897     1.6648972
C           3.5121884    -0.4263219     0.7914966
C           3.3607644     0.6918435    -0.0709285
C           4.5331886     1.2451423    -0.6191566
H           4.4443234     2.0964645    -1.2862521
C           0.7987724    -1.3896536     2.9527724
H           0.0327870    -1.1541176     3.6794719
N           1.5908592    -0.4064709     2.4101543
C           2.4096015    -1.0229043     1.5762488
N           2.1729594    -2.3783619     1.5766169
H           2.6456494    -3.0592302     0.9996431
C           1.1352373    -2.6231230     2.4513892
H           0.7514418    -3.6171158     2.6252476
C          -0.3883561     2.6452940    -0.9643471
H          -1.3283098     3.1424705    -1.1885540
C           0.7950260     3.3782314    -0.8782808
H           0.7833323     4.4553107    -1.0236124
C           1.9981887     2.7371588    -0.5881225
H           2.8985347     3.3343484    -0.4822410
C           2.0573089     1.3459657    -0.3866202
C           0.8497924     0.6294030    -0.4524773
H           0.8524530    -0.4450402    -0.3109020
C          -0.3524672     1.2666968    -0.7494865
H          -1.2661282     0.6811938    -0.8094439
29
128_C15H12N2_8-7-24-25 (165,) energy =    -688.3181250
C           5.8169848     0.7452204    -0.3129801
H           6.6923729     1.2247744    -0.7427250
C           5.9508385    -0.3903594     0.4819469
H           6.9283190    -0.8158784     0.6904499
C           4.8049560    -0.9557575     1.0314306
H           4.8938896    -1.8054420     1.7032953
C           3.5249989    -0.4265700     0.7957055
C           3.3680585     0.6899762    -0.0716657
C           4.5536273     1.2686426    -0.5685261
H           4.4862722     2.1168990    -1.2395139
C           0.8888315    -1.5309582     2.9892985
H           0.1932422    -1.3591490     3.7998410
N           1.7225975    -0.5319836     2.5429017
C           2.4301431    -1.0664830     1.5645442
N           2.0882907    -2.3851850     1.3791848
H           2.4712024    -2.9992737     0.6746336
C           1.0911305    -2.6907599     2.2831570
H           0.6439710    -3.6719423     2.3368971
C          -0.3949886     2.6551445    -0.9701212
H          -1.3339442     3.1576705    -1.1860599
C           0.8189614     3.3242120    -1.1216180
H           0.8361173     4.3612878    -1.4465099
C           2.0196634     2.6778609    -0.8376977
H           2.9353803     3.2524376    -0.9169642
C           2.0589121     1.3341396    -0.4116976
C           0.8188056     0.6910580    -0.2380914
H           0.7790957    -0.3427061     0.0754124
C          -0.3835616     1.3338248    -0.5257359
H          -1.3172767     0.7934791    -0.3941918
29
128_C15H12N2_8-7-24-25 (180,) energy =    -688.3161680
C           5.8435289     0.7844678    -0.2376846
H           6.7059190     1.1882609    -0.7614445
C           6.0029866    -0.1956354     0.7389282
H           6.9884747    -0.5665221     1.0055345
C           4.8654592    -0.7166385     1.3439188
H           4.9514676    -1.5149888     2.0747867
C           3.5765526    -0.2645944     1.0186138
C           3.4035636     0.8153001     0.1053327
C           4.5743530     1.2636110    -0.5434268
H           4.5135510     2.0531234    -1.2809114
C           1.1463418    -2.0676520     2.9784983
H           0.6895711    -2.3233278     3.9251051
N           2.1654028    -1.1431621     2.9046908
C           2.4831226    -1.0636333     1.6245325
N           1.7183087    -1.9256567     0.8778566
H           1.7622843    -2.0312174    -0.1255208
C           0.8478095    -2.5649200     1.7345301
H           0.1327487    -3.2960341     1.3883468
C          -0.4003812     2.6031074    -1.0477074
H          -1.3460590     3.0433760    -1.3517201
C           0.7942801     2.9964029    -1.6494236
H           0.7909433     3.7495242    -2.4331557
C           2.0039953     2.4282306    -1.2591502
H           2.8943003     2.7681830    -1.7728692
C           2.0839020     1.4477340    -0.2458713
C           0.8599862     1.0705795     0.3452742
H           0.8400032     0.3737421     1.1694212
C          -0.3523955     1.6412023    -0.0415263
H          -1.2643300     1.3267199     0.4592053
