29
128_C15H12N2_4-6-13-12 (-165,) energy =    -688.3233129
C           5.6060157     1.4136819     0.8284152
H           6.4312976     2.1163097     0.7536567
C           5.7615408     0.2024701     1.4999380
H           6.7121268    -0.0625963     1.9545533
C           4.6878588    -0.6764830     1.5789632
H           4.8408018    -1.6310241     2.0755824
C           3.4352608    -0.3918840     0.9981604
C           3.2812424     0.8356046     0.2993774
C           4.3799977     1.7096092     0.2388539
H           4.2552690     2.6451224    -0.2989863
C           0.4732749    -2.4341953     1.2208486
H          -0.5125288    -2.7207378     0.8801684
N           1.1784580    -1.4377813     0.5975679
C           2.3340335    -1.3407269     1.2368892
N           2.3803895    -2.2610635     2.2650215
H           3.0956287    -2.3267128     2.9731876
C           1.1935332    -2.9569198     2.2663046
H           0.9852270    -3.7345936     2.9857962
C          -0.2038503     2.3628247    -1.7160827
H          -1.0673359     2.7679834    -2.2374359
C           0.3990922     1.1854138    -2.1656754
H           0.0066634     0.6720942    -3.0397276
C           1.5015806     0.6590376    -1.4966125
H           1.9569724    -0.2620150    -1.8433895
C           2.0294285     1.3065947    -0.3703512
C           1.4232143     2.4937954     0.0657762
H           1.8241633     3.0058098     0.9368920
C           0.3091237     3.0145554    -0.5950867
H          -0.1528967     3.9300166    -0.2343432
29
128_C15H12N2_4-6-13-12 (-150,) energy =    -688.3247333
C           5.6201605     1.4413642     0.8172608
H           6.4469825     2.1432912     0.7520929
C           5.7679878     0.2304141     1.4914039
H           6.7133483    -0.0338826     1.9572627
C           4.6938111    -0.6503841     1.5521676
H           4.8279986    -1.6086410     2.0476470
C           3.4521125    -0.3622768     0.9513727
C           3.3002092     0.8693959     0.2612926
C           4.4011072     1.7422563     0.2152415
H           4.2838866     2.6817586    -0.3173066
C           0.6037115    -2.5727412     1.0391528
H          -0.2884731    -2.9974080     0.5991224
N           1.3426387    -1.6259552     0.3755239
C           2.3595209    -1.3271209     1.1685345
N           2.2879332    -2.0679847     2.3295574
H           2.8858588    -1.9588554     3.1352973
C           1.1645725    -2.8598943     2.2589552
H           0.8816012    -3.5288783     3.0577381
C          -0.2275978     2.4209047    -1.6614519
H          -1.1046906     2.8313171    -2.1552688
C           0.3358213     1.2245753    -2.1098285
H          -0.1003724     0.7014728    -2.9568726
C           1.4569288     0.6900317    -1.4766246
H           1.8793533    -0.2456179    -1.8216661
C           2.0408601     1.3497355    -0.3852506
C           1.4720203     2.5574897     0.0501809
H           1.9151768     3.0781624     0.8953474
C           0.3425379     3.0859494    -0.5756517
H          -0.0884174     4.0164943    -0.2150898
29
128_C15H12N2_4-6-13-12 (-135,) energy =    -688.3254989
C           5.6429535     1.4334296     0.8101647
H           6.4753190     2.1290673     0.7466093
C           5.7826436     0.2209711     1.4835462
H           6.7256695    -0.0486052     1.9510883
C           4.7026367    -0.6544112     1.5391409
H           4.8184246    -1.6125012     2.0395251
C           3.4672778    -0.3534012     0.9345818
C           3.3200896     0.8815124     0.2515458
C           4.4268192     1.7474823     0.2085535
H           4.3182741     2.6900975    -0.3203052
C           0.7470009    -2.7231237     0.9120431
H          -0.0359953    -3.2733882     0.4079911
N           1.5268446    -1.8156998     0.2373442
C           2.3770813    -1.3298859     1.1272419
N           2.1679822    -1.9158846     2.3557694
H           2.6417771    -1.6665346     3.2117754
C           1.1206653    -2.8009602     2.2306512
H           0.7521997    -3.3788767     3.0647964
C          -0.2458714     2.4388720    -1.5963131
H          -1.1351216     2.8489478    -2.0681477
C           0.2748181     1.2155764    -2.0212891
H          -0.2064577     0.6706043    -2.8292402
C           1.4131231     0.6811018    -1.4175263
H           1.8002149    -0.2763330    -1.7418543
C           2.0545682     1.3679698    -0.3755924
C           1.5259849     2.6029079     0.0377726
H           2.0113104     3.1436950     0.8463204
C           0.3828856     3.1317867    -0.5608487
H          -0.0147837     4.0834862    -0.2176488
29
128_C15H12N2_4-6-13-12 (-120,) energy =    -688.3255570
C           5.6663004     1.4285979     0.8078744
H           6.5023674     2.1202711     0.7482477
C           5.8049681     0.2066686     1.4644126
H           6.7492749    -0.0718778     1.9239832
C           4.7208914    -0.6653308     1.5134784
H           4.8268869    -1.6277203     2.0074805
C           3.4867972    -0.3468577     0.9193810
C           3.3386149     0.8974360     0.2564236
C           4.4489360     1.7595366     0.2180169
H           4.3449755     2.7088632    -0.2995524
C           0.8936545    -2.8551815     0.8150882
H           0.2276937    -3.5174002     0.2785438
N           1.7292523    -1.9910032     0.1475854
C           2.3966750    -1.3351032     1.0825981
N           2.0246292    -1.7716698     2.3321074
H           2.3626627    -1.3971966     3.2068803
C           1.0551083    -2.7373564     2.1728746
H           0.5854594    -3.2265483     3.0128842
C          -0.2645280     2.4398000    -1.5314858
H          -1.1651233     2.8437529    -1.9867295
C           0.2134650     1.1847850    -1.9110783
H          -0.3124085     0.6084304    -2.6678692
C           1.3673940     0.6583715    -1.3295541
H           1.7220405    -0.3232985    -1.6183959
C           2.0665880     1.3852969    -0.3529554
C           1.5779126     2.6508441     0.0171860
H           2.1038939     3.2213265     0.7784421
C           0.4216641     3.1722670    -0.5614403
H           0.0570144     4.1486066    -0.2524853
29
128_C15H12N2_4-6-13-12 (-105,) energy =    -688.3252278
C           5.7045364     1.4257865     0.8041438
H           6.5399955     2.1187366     0.7496899
C           5.8556675     0.1856010     1.4231311
H           6.8079098    -0.1033931     1.8591946
C           4.7721237    -0.6884321     1.4686629
H           4.8809165    -1.6608707     1.9415424
C           3.5311672    -0.3502322     0.9056753
C           3.3707308     0.9087609     0.2780267
C           4.4780886     1.7745664     0.2438338
H           4.3680616     2.7357270    -0.2501215
C           1.0128045    -2.9332799     0.7653312
H           0.4524964    -3.6885393     0.2309220
N           1.9431016    -2.1479939     0.1231007
C           2.4336259    -1.3402756     1.0475694
N           1.8585152    -1.5977327     2.2672682
H           2.0519899    -1.0979233     3.1231231
C           0.9396348    -2.6111644     2.0969262
H           0.3403349    -2.9885718     2.9117224
C          -0.2825553     2.3964256    -1.4522443
H          -1.1974095     2.7839429    -1.8930208
C           0.1901301     1.1326617    -1.8092761
H          -0.3539153     0.5332526    -2.5346301
C           1.3628543     0.6282010    -1.2464460
H           1.7175627    -0.3578785    -1.5234683
C           2.0865587     1.3861189    -0.3111340
C           1.6019969     2.6591307     0.0373935
H           2.1451134     3.2524890     0.7685343
C           0.4277289     3.1591248    -0.5236713
H           0.0671965     4.1424902    -0.2327304
29
128_C15H12N2_4-6-13-12 (-90,) energy =    -688.3253010
C           5.7574707     1.4187839     0.7998218
H           6.5851441     2.1217454     0.7548545
C           5.9347471     0.1570289     1.3667628
H           6.8987157    -0.1354755     1.7736755
C           4.8609074    -0.7299789     1.4059909
H           4.9849022    -1.7154523     1.8463203
C           3.6083350    -0.3828218     0.8799535
C           3.4215531     0.8962926     0.3048367
C           4.5163935     1.7775012     0.2789668
H           4.3880152     2.7536121    -0.1801581
C           1.1062651    -2.9802084     0.7401495
H           0.6363105    -3.8209036     0.2477900
N           2.1757529    -2.3262850     0.1690823
C           2.5026242    -1.3670949     1.0171047
N           1.6789554    -1.3857527     2.1134103
H           1.7201226    -0.7418826     2.8901749
C           0.7761694    -2.4144605     1.9454030
H           0.0150171    -2.6376754     2.6777592
C          -0.2970403     2.3099950    -1.3457675
H          -1.2298932     2.6760627    -1.7665333
C           0.1936465     1.0543999    -1.7085085
H          -0.3538131     0.4404565    -2.4188903
C           1.3895540     0.5786852    -1.1708908
H           1.7625202    -0.3980366    -1.4592277
C           2.1192763     1.3563814    -0.2559978
C           1.6165000     2.6202464     0.0981323
H           2.1635228     3.2287631     0.8137814
C           0.4192003     3.0923538    -0.4384821
H           0.0451092     4.0697565    -0.1446328
29
128_C15H12N2_4-6-13-12 (-75,) energy =    -688.3265545
C           5.7852754     1.4125498     0.7854865
H           6.6076835     2.1215796     0.7402773
C           5.9831636     0.1365020     1.3133069
H           6.9578378    -0.1588712     1.6916270
C           4.9160646    -0.7578644     1.3584165
H           5.0521413    -1.7519993     1.7740832
C           3.6505431    -0.4053147     0.8690633
C           3.4432550     0.8873217     0.3321649
C           4.5302993     1.7774773     0.3036306
H           4.3865813     2.7627741    -0.1307955
C           1.2003368    -3.0459435     0.7795369
H           0.8187786    -3.9725581     0.3721420
N           2.3696999    -2.4887562     0.3114955
C           2.5467764    -1.3855462     1.0182328
N           1.5255994    -1.2130506     1.9167147
H           1.4187623    -0.4272578     2.5417394
C           0.6540218    -2.2709731     1.7714069
H          -0.2351865    -2.3707289     2.3754899
C          -0.3200023     2.2557507    -1.2561136
H          -1.2646007     2.6082811    -1.6617793
C           0.1787019     1.0033324    -1.6206618
H          -0.3741544     0.3788301    -2.3174379
C           1.3896070     0.5463089    -1.1021377
H           1.7706284    -0.4265277    -1.3953736
C           2.1278679     1.3377219    -0.2054236
C           1.6162931     2.5970501     0.1511051
H           2.1687936     3.2165903     0.8529702
C           0.4035982     3.0516835    -0.3669651
H           0.0234894     4.0265195    -0.0723665
29
128_C15H12N2_4-6-13-12 (-60,) energy =    -688.3284002
C           5.7919607     1.3957249     0.7594255
H           6.6160948     2.1022799     0.7088527
C           5.9957146     0.1086035     1.2584751
H           6.9773668    -0.1973855     1.6094218
C           4.9265962    -0.7814213     1.3163782
H           5.0639166    -1.7822298     1.7142353
C           3.6500571    -0.4151787     0.8641706
C           3.4390609     0.8859107     0.3486439
C           4.5279552     1.7729113     0.3119594
H           4.3784183     2.7646104    -0.1057867
C           1.3033450    -3.1398471     0.9155063
H           1.0092896    -4.1416145     0.6323013
N           2.5111186    -2.6121518     0.5202468
C           2.5542340    -1.3937939     1.0353523
N           1.4100591    -1.1229090     1.7410887
H           1.1853425    -0.2427520     2.1819704
C           0.5983969    -2.2334344     1.6682009
H          -0.3656979    -2.2734159     2.1524609
C          -0.3289752     2.2674888    -1.2181332
H          -1.2739811     2.6227346    -1.6202695
C           0.1810166     1.0276703    -1.6111125
H          -0.3636563     0.4163918    -2.3257815
C           1.3923774     0.5684189    -1.0970710
H           1.7839902    -0.3942224    -1.4116878
C           2.1211379     1.3431666    -0.1779025
C           1.5980644     2.5889632     0.2073211
H           2.1439771     3.1963070     0.9248742
C           0.3837754     3.0466990    -0.3061002
H          -0.0051071     4.0113619     0.0096749
29
128_C15H12N2_4-6-13-12 (-45,) energy =    -688.3302901
C           5.7962512     1.3733901     0.7249563
H           6.6244872     2.0742832     0.6648065
C           5.9969275     0.0808167     1.2119594
H           6.9821684    -0.2355549     1.5432915
C           4.9225239    -0.7999289     1.2883845
H           5.0561760    -1.8027418     1.6812113
C           3.6382037    -0.4220564     0.8636762
C           3.4331766     0.8819803     0.3523322
C           4.5270587     1.7614829     0.3023272
H           4.3754178     2.7562944    -0.1075135
C           1.4029656    -3.2176657     1.1403115
H           1.1890021    -4.2713075     1.0208345
N           2.6244652    -2.6933553     0.7930350
C           2.5509058    -1.3985221     1.0653529
N           1.3169513    -1.0797732     1.5729623
H           0.9993815    -0.1507474     1.8091722
C           0.5715204    -2.2359071     1.6221909
H          -0.4439001    -2.2488620     1.9887006
C          -0.3253678     2.3101062    -1.1978444
H          -1.2670502     2.6774748    -1.5967365
C           0.2122056     1.1060685    -1.6604202
H          -0.3077698     0.5358282    -2.4256202
C           1.4193309     0.6320212    -1.1502848
H           1.8343068    -0.3017907    -1.5183518
C           2.1168797     1.3549798    -0.1668438
C           1.5670240     2.5652929     0.2872992
H           2.0919719     3.1329823     1.0514641
C           0.3556884     3.0380123    -0.2216601
H          -0.0543215     3.9747873     0.1467805
29
128_C15H12N2_4-6-13-12 (-30,) energy =    -688.3316778
C           5.7985234     1.3374960     0.6759510
H           6.6327976     2.0294608     0.5993462
C           5.9926552     0.0429850     1.1613177
H           6.9806297    -0.2848183     1.4730092
C           4.9116957    -0.8253685     1.2633865
H           5.0393297    -1.8280179     1.6574405
C           3.6198491    -0.4348041     0.8685364
C           3.4244412     0.8680042     0.3489515
C           4.5254204     1.7364329     0.2765940
H           4.3735316     2.7320252    -0.1315827
C           1.4703565    -3.2582502     1.3825114
H           1.3177394    -4.3278090     1.4372129
N           2.6989815    -2.7273230     1.0837568
C           2.5390304    -1.4099982     1.0945335
N           1.2389668    -1.0876673     1.3937755
H           0.8576486    -0.1533484     1.4317762
C           0.5448407    -2.2609755     1.5778263
H          -0.5065100    -2.2728953     1.8230478
C          -0.3210233     2.3539150    -1.1822908
H          -1.2587274     2.7362570    -1.5763499
C           0.2537599     1.2030570    -1.7284300
H          -0.2333447     0.6900733    -2.5534447
C           1.4561656     0.7102779    -1.2242164
H           1.9016003    -0.1817014    -1.6554172
C           2.1108290     1.3604366    -0.1634259
C           1.5247216     2.5185361     0.3736603
H           2.0193841     3.0307867     1.1949595
C           0.3177474     3.0099906    -0.1295971
H          -0.1210562     3.9055571     0.3024988
29
128_C15H12N2_4-6-13-12 (-15,) energy =    -688.3321024
C           5.8367628     1.3305806     0.6128084
H           6.6751881     2.0142202     0.5114941
C           6.0272690     0.0401039     1.1106203
H           7.0182719    -0.2949833     1.4046667
C           4.9421674    -0.8169555     1.2452200
H           5.0682780    -1.8151625     1.6497864
C           3.6421554    -0.4200065     0.8790994
C           3.4528131     0.8757540     0.3389034
C           4.5593033     1.7334839     0.2331601
H           4.4053607     2.7255400    -0.1829576
C           1.5484956    -3.2291151     1.6332142
H           1.4349456    -4.2783255     1.8709768
N           2.7803507    -2.6814309     1.3942487
C           2.5682884    -1.3966825     1.1299559
N           1.2266055    -1.1131663     1.2031844
H           0.8045612    -0.2108650     1.0389101
C           0.5647323    -2.2751916     1.5223877
H          -0.5087655    -2.3114028     1.6317465
C          -0.2825597     2.4087518    -1.1750113
H          -1.2169643     2.8035954    -1.5644852
C           0.3338420     1.3201412    -1.7976671
H          -0.1171423     0.8684253    -2.6772421
C           1.5330299     0.8120956    -1.2989917
H           2.0117143    -0.0318493    -1.7878016
C           2.1403705     1.3834018    -0.1668747
C           1.5129894     2.4801948     0.4462706
H           1.9727262     2.9314779     1.3216272
C           0.3102623     2.9872476    -0.0519352
H          -0.1613019     3.8345796     0.4388085
29
128_C15H12N2_4-6-13-12 (0,) energy =    -688.3317580
C           5.8511894     1.2826719     0.4834440
H           6.7000694     1.9398064     0.3156971
C           6.0245524     0.0318236     1.0792562
H           7.0139853    -0.2999273     1.3824032
C           4.9281314    -0.7936286     1.2905223
H           5.0440708    -1.7634046     1.7612657
C           3.6276914    -0.4029290     0.9147237
C           3.4535476     0.8588409     0.2957806
C           4.5737917     1.6813603     0.0997959
H           4.4268438     2.6485387    -0.3735957
C           1.5260824    -3.1152188     1.9483136
H           1.4103102    -4.0890060     2.4050879
N           2.7561223    -2.5317700     1.8158900
C           2.5504329    -1.3604193     1.2213124
N           1.2099297    -1.1852148     0.9775127
H           0.7902908    -0.3828079     0.5314579
C           0.5462841    -2.2982354     1.4358625
H          -0.5255208    -2.3994782     1.3539619
C          -0.3078500     2.4363524    -1.1105800
H          -1.2499738     2.8419501    -1.4691497
C           0.3972985     1.5108038    -1.8832972
H           0.0078330     1.1965149    -2.8480069
C           1.6085703     0.9904379    -1.4231891
H           2.1577819     0.2729368    -2.0269300
C           2.1336184     1.3842322    -0.1804912
C           1.4171515     2.3191042     0.5837627
H           1.8150285     2.6329924     1.5449479
C           0.2059207     2.8399382     0.1232593
H          -0.3352601     3.5615626     0.7294477
29
128_C15H12N2_4-6-13-12 (15,) energy =    -688.3321021
C           5.8662153     1.1453000     0.2472176
H           6.7333178     1.7261815    -0.0549490
C           6.0122116     0.0172218     1.0569167
H           6.9974909    -0.2942766     1.3931016
C           4.8938666    -0.7208762     1.4237707
H           4.9906564    -1.6116431     2.0346285
C           3.6008427    -0.3527299     1.0062557
C           3.4466559     0.8124128     0.2155062
C           4.5925563     1.5302379    -0.1625246
H           4.4653199     2.4232645    -0.7686014
C           1.4201105    -2.8456381     2.3751349
H           1.2409777    -3.6599854     3.0643487
N           2.6198849    -2.1866549     2.3469576
C           2.5061505    -1.2525809     1.4088149
N           1.2604136    -1.3081303     0.8336578
H           0.9217437    -0.7026847     0.1001733
C           0.5570293    -2.3202656     1.4429190
H          -0.4583769    -2.5598701     1.1650602
C          -0.3283704     2.4678310    -1.0508052
H          -1.2738475     2.8970760    -1.3709939
C           0.5713487     1.9693216    -1.9938656
H           0.3292851     2.0070695    -3.0527133
C           1.7877627     1.4198954    -1.5811020
H           2.4869606     1.0312978    -2.3168803
C           2.1226380     1.3552188    -0.2186799
C           1.2076867     1.8635497     0.7201473
H           1.4574845     1.8270926     1.7768308
C          -0.0053074     2.4143083     0.3076868
H          -0.6970124     2.8072355     1.0481164
29
128_C15H12N2_4-6-13-12 (30,) energy =    -688.3316778
C           5.8669233     1.0941689     0.2066951
H           6.7374187     1.6585835    -0.1163696
C           6.0121249    -0.0265567     1.0264043
H           6.9991193    -0.3496798     1.3459855
C           4.8882475    -0.7437080     1.4207721
H           4.9828556    -1.6290539     2.0405198
C           3.5961008    -0.3535437     1.0265211
C           3.4427614     0.7993768     0.2186094
C           4.5928284     1.4950631    -0.1875042
H           4.4706389     2.3847428    -0.7994044
C           1.3023823    -2.6681785     2.5223470
H           1.0403864    -3.3531464     3.3175933
N           2.4835228    -1.9716103     2.5410912
C           2.4881423    -1.2325153     1.4389282
N           1.3395686    -1.4412467     0.7172497
H           1.0910744    -0.9735538    -0.1425844
C           0.5719375    -2.3555276     1.4007468
H          -0.3885691    -2.6856497     1.0346045
C          -0.3504645     2.4471268    -0.9968275
H          -1.3013763     2.8742814    -1.3035278
C           0.5866287     2.0591117    -1.9549138
H           0.3686411     2.1804869    -3.0127606
C           1.8097600     1.5128749    -1.5584754
H           2.5373667     1.2099206    -2.3070947
C           2.1146506     1.3407276    -0.1981229
C           1.1610440     1.7367988     0.7559941
H           1.3860742     1.6175854     1.8119867
C          -0.0577387     2.2851240     0.3600791
H          -0.7789409     2.5915279     1.1131111
29
128_C15H12N2_4-6-13-12 (45,) energy =    -688.3302901
C           5.8802776     1.0754491     0.1504274
H           6.7497705     1.6311194    -0.1902429
C           6.0323952    -0.0446482     0.9692213
H           7.0226145    -0.3772380     1.2682563
C           4.9074560    -0.7475716     1.3891097
H           5.0077171    -1.6312602     2.0110812
C           3.6141750    -0.3399467     1.0231602
C           3.4536370     0.8058637     0.2074622
C           4.6033135     1.4891743    -0.2214140
H           4.4808897     2.3797561    -0.8317304
C           1.1863509    -2.4577677     2.6070560
H           0.8269056    -3.0007334     3.4708867
N           2.3486714    -1.7268928     2.6560308
C           2.4942182    -1.2008883     1.4484323
N           1.4569951    -1.5713872     0.6306243
H           1.3150203    -1.2585011    -0.3189441
C           0.6108397    -2.3733715     1.3624571
H          -0.2871921    -2.7973359     0.9389375
C          -0.3634397     2.4335234    -0.9540380
H          -1.3211228     2.8553459    -1.2468678
C           0.6054256     2.1540893    -1.9183101
H           0.4054097     2.3542215    -2.9677601
C           1.8363489     1.6147293    -1.5391857
H           2.5865672     1.3937835    -2.2942675
C           2.1190971     1.3410215    -0.1906117
C           1.1332739     1.6271589     0.7699359
H           1.3385744     1.4290089     1.8179296
C          -0.0936663     2.1687401     0.3912515
H          -0.8397064     2.3896429     1.1499980
29
128_C15H12N2_4-6-13-12 (60,) energy =    -688.3284001
C           5.8867119     1.0602610     0.1125852
H           6.7551717     1.6109818    -0.2387761
C           6.0452557    -0.0660109     0.9210594
H           7.0377742    -0.4087467     1.2001191
C           4.9201012    -0.7588648     1.3597950
H           5.0251932    -1.6450289     1.9782081
C           3.6266378    -0.3349400     1.0200729
C           3.4590143     0.8118536     0.2077180
C           4.6077695     1.4882960    -0.2356890
H           4.4851673     2.3836947    -0.8386626
C           1.0477130    -2.2436923     2.6446911
H           0.5794168    -2.6344023     3.5381431
N           2.1861717    -1.4739542     2.7141565
C           2.4911861    -1.1736625     1.4618078
N           1.5805840    -1.7205943     0.5944815
H           1.5696507    -1.5896502    -0.4066594
C           0.6477030    -2.4057007     1.3412993
H          -0.1769204    -2.9338552     0.8867275
C          -0.3767904     2.4246753    -0.9095291
H          -1.3398425     2.8416318    -1.1917232
C           0.6140855     2.2302793    -1.8725210
H           0.4257253     2.4913549    -2.9107291
C           1.8506600     1.6964310    -1.5070852
H           2.6151902     1.5383935    -2.2635732
C           2.1192850     1.3435899    -0.1739279
C           1.1118301     1.5444056     0.7856951
H           1.3033074     1.2838819     1.8222662
C          -0.1218896     2.0799936     0.4201030
H          -0.8850077     2.2335357     1.1784939
29
128_C15H12N2_4-6-13-12 (75,) energy =    -688.3265544
C           5.8884668     1.0481676     0.0833223
H           6.7567744     1.5958440    -0.2733519
C           6.0492206    -0.0955579     0.8656931
H           7.0424970    -0.4550987     1.1196545
C           4.9224774    -0.7803372     1.3153002
H           5.0312565    -1.6771295     1.9182331
C           3.6295175    -0.3330690     1.0094897
C           3.4595284     0.8264428     0.2165659
C           4.6088663     1.4978121    -0.2341376
H           4.4873545     2.4036240    -0.8214429
C           0.9282590    -2.0922691     2.6198810
H           0.3558049    -2.3500014     3.5008145
N           2.0162435    -1.2512345     2.6967237
C           2.4811054    -1.1559327     1.4627353
N           1.7219100    -1.9003074     0.5970897
H           1.8559672    -1.9580941    -0.4020232
C           0.7209480    -2.5040928     1.3275002
H          -0.0108209    -3.1544757     0.8724448
C          -0.3781365     2.4494791    -0.8772456
H          -1.3419334     2.8677438    -1.1551652
C           0.6198366     2.2844006    -1.8387309
H           0.4362908     2.5693679    -2.8715403
C           1.8562942     1.7484212    -1.4787031
H           2.6250264     1.6107578    -2.2348676
C           2.1188947     1.3633973    -0.1529632
C           1.1054456     1.5354542     0.8055879
H           1.2904588     1.2506225     1.8362224
C          -0.1291238     2.0734018     0.4443551
H          -0.8975424     2.2039750     1.2017511
29
128_C15H12N2_4-6-13-12 (90,) energy =    -688.3253010
C           5.8655188     1.0369729     0.0639706
H           6.7381957     1.5816065    -0.2867855
C           6.0171522    -0.1323472     0.8086705
H           7.0070340    -0.5144369     1.0421516
C           4.8834805    -0.8089870     1.2540778
H           4.9873479    -1.7220105     1.8337527
C           3.5939208    -0.3338954     0.9757035
C           3.4332476     0.8509660     0.2193640
C           4.5896052     1.5159751    -0.2238691
H           4.4760685     2.4381360    -0.7867144
C           0.8361981    -2.0334106     2.5671977
H           0.1689977    -2.1833019     3.4053042
N           1.8157140    -1.0653998     2.5996459
C           2.4404435    -1.1497619     1.4383379
N           1.8947342    -2.1408718     0.6633850
H           2.1896205    -2.3857791    -0.2707942
C           0.8618413    -2.7127967     1.3757863
H           0.2685220    -3.5228913     0.9792550
C          -0.3698628     2.5558435    -0.8664455
H          -1.3241040     2.9955919    -1.1444546
C           0.6236379     2.3676419    -1.8286281
H           0.4462584     2.6556038    -2.8616983
C           1.8473533     1.8046787    -1.4681881
H           2.6127804     1.6490067    -2.2242106
C           2.1010843     1.4138251    -0.1421232
C           1.0933355     1.6092565     0.8173751
H           1.2709550     1.3171414     1.8466223
C          -0.1288367     2.1752868     0.4548922
H          -0.8940626     2.3234756     1.2123616
29
128_C15H12N2_4-6-13-12 (105,) energy =    -688.3252278
C           5.8164246     1.0311144     0.0440272
H           6.6933167     1.5783967    -0.2916489
C           5.9572127    -0.1706150     0.7369026
H           6.9428710    -0.5755243     0.9489430
C           4.8171063    -0.8458632     1.1661630
H           4.9152368    -1.7792854     1.7140516
C           3.5292395    -0.3448210     0.9178461
C           3.3796954     0.8737033     0.2124438
C           4.5444421     1.5378858    -0.2109435
H           4.4389291     2.4815333    -0.7385084
C           0.7571895    -2.0374412     2.4941401
H           0.0031835    -2.1145214     3.2658202
N           1.6015152    -0.9523882     2.4281146
C           2.3839861    -1.1668174     1.3843548
N           2.0783320    -2.3663971     0.7908234
H           2.5215889    -2.7406062    -0.0357490
C           1.0310991    -2.9294865     1.4884091
H           0.5947150    -3.8762213     1.2077849
C          -0.3698197     2.6936689    -0.8744425
H          -1.3087258     3.1641754    -1.1545870
C           0.6205401     2.4761063    -1.8337644
H           0.4562450     2.7715044    -2.8669083
C           1.8243013     1.8744637    -1.4695777
H           2.5876176     1.6970639    -2.2229056
C           2.0606277     1.4716081    -0.1434026
C           1.0563255     1.6957630     0.8127269
H           1.2178827     1.3869168     1.8390956
C          -0.1458072     2.3016165     0.4462049
H          -0.9094317     2.4707521     1.2009831
29
128_C15H12N2_4-6-13-12 (120,) energy =    -688.3255570
C           5.7806607     1.0249550     0.0308601
H           6.6568223     1.5756353    -0.3009078
C           5.9202234    -0.1976618     0.6859220
H           6.9048690    -0.6162669     0.8749941
C           4.7806434    -0.8745662     1.1115673
H           4.8820326    -1.8193209     1.6394271
C           3.4899129    -0.3592487     0.8975075
C           3.3423350     0.8804935     0.2259285
C           4.5085387     1.5461788    -0.1915875
H           4.4020682     2.5025701    -0.6954577
C           0.6628701    -2.0465035     2.3766466
H          -0.1825297    -2.0804427     3.0504904
N           1.4190972    -0.9063950     2.2392343
C           2.3569573    -1.1964756     1.3525799
N           2.2332263    -2.5000509     0.9334444
H           2.8056520    -2.9450262     0.2305571
C           1.1452170    -3.0503974     1.5747294
H           0.8267771    -4.0670495     1.4000621
C          -0.3657215     2.7851226    -0.8616982
H          -1.2921866     3.2786204    -1.1438896
C           0.6072974     2.5135932    -1.8249369
H           0.4422836     2.7899387    -2.8632342
C           1.7951063     1.8830779    -1.4572882
H           2.5459865     1.6660295    -2.2127304
C           2.0316231     1.5023338    -0.1244161
C           1.0450796     1.7808399     0.8348601
H           1.2043824     1.4839527     1.8641145
C          -0.1406096     2.4168641     0.4654499
H          -0.8911355     2.6269003     1.2231115
29
128_C15H12N2_4-6-13-12 (135,) energy =    -688.3255714
C           5.6042777     1.4834029     0.9610240
H           6.4505179     2.1584522     0.8665749
C           5.7228430     0.2981864     1.6854684
H           6.6579207     0.0397850     2.1747517
C           4.6212164    -0.5455504     1.7991708
H           4.6951861    -1.4403698     2.4122190
C           3.3929853    -0.2407686     1.1869388
C           3.2754356     0.9509779     0.4303233
C           4.3930663     1.7967711     0.3470985
H           4.3093384     2.7050151    -0.2430034
C           0.3543786    -2.0401072     1.8671372
H          -0.6969322    -2.0692219     2.1204127
N           1.0121955    -0.8471391     1.6958860
C           2.2626917    -1.1620720     1.4031629
N           2.4273505    -2.5290197     1.3926002
H           3.2737604    -3.0196188     1.1428461
C           1.2071494    -3.1009031     1.6808817
H           1.0687947    -4.1708217     1.7226573
C          -0.1836956     2.1463863    -1.8357789
H          -1.0459729     2.4571958    -2.4197478
C           0.3577459     0.8701362    -2.0062878
H          -0.0786220     0.1851667    -2.7287166
C           1.4606141     0.4695079    -1.2556471
H           1.8798245    -0.5220459    -1.4004602
C           2.0469464     1.3369652    -0.3211799
C           1.4982203     2.6180939    -0.1636272
H           1.9333651     3.2961349     0.5656895
C           0.3899364     3.0185461    -0.9105143
H          -0.0266231     4.0119276    -0.7651069
29
128_C15H12N2_4-6-13-12 (150,) energy =    -688.3250985
C           5.6016428     1.4579834     0.8953657
H           6.4485150     2.1288017     0.7798840
C           5.7294975     0.2729392     1.6180862
H           6.6743369     0.0078366     2.0845091
C           4.6265028    -0.5632313     1.7601580
H           4.7176066    -1.4505424     2.3817173
C           3.3805282    -0.2544522     1.1834636
C           3.2573374     0.9340424     0.4197478
C           4.3771455     1.7736905     0.3102506
H           4.2813692     2.6809576    -0.2796044
C           0.3222192    -2.0697013     1.7211923
H          -0.7538087    -2.1092810     1.8248838
N           0.9690912    -0.8868973     1.4692805
C           2.2585439    -1.1795770     1.4114612
N           2.4533447    -2.5278296     1.6212457
H           3.3328014    -3.0181790     1.5522843
C           1.2188747    -3.1065684     1.8140290
H           1.1021515    -4.1651165     1.9916006
C          -0.1894920     2.1892441    -1.8321476
H          -1.0462457     2.5175899    -2.4147479
C           0.3889433     0.9409137    -2.0750304
H          -0.0135799     0.2959376    -2.8519419
C           1.4846552     0.5175891    -1.3268389
H           1.9320835    -0.4523645    -1.5243647
C           2.0258674     1.3344876    -0.3228614
C           1.4433544     2.5887268    -0.0939639
H           1.8488719     3.2287241     0.6852457
C           0.3408268     3.0112169    -0.8380856
H          -0.1032503     3.9830190    -0.6381435
29
128_C15H12N2_4-6-13-12 (165,) energy =    -688.3236293
C           5.6070883     1.4105233     0.8380012
H           6.4557798     2.0754806     0.7042201
C           5.7373571     0.2291769     1.5657082
H           6.6880111    -0.0427484     2.0161076
C           4.6323226    -0.5987501     1.7300121
H           4.7436071    -1.4821022     2.3533464
C           3.3741485    -0.2886568     1.1781644
C           3.2506494     0.8963319     0.4064174
C           4.3741853     1.7272509     0.2725376
H           4.2702781     2.6328024    -0.3185726
C           0.3047616    -2.1239782     1.5815556
H          -0.7733582    -2.1935100     1.5279746
N           0.9608606    -0.9727752     1.2332145
C           2.2508057    -1.2083458     1.4199754
N           2.4341285    -2.4971537     1.8767318
H           3.3172277    -2.9602770     2.0282575
C           1.1966578    -3.0901087     1.9791755
H           1.0753812    -4.1092240     2.3145996
C          -0.1889673     2.2406599    -1.8052870
H          -1.0418956     2.5944963    -2.3786098
C           0.4350138     1.0371010    -2.1438829
H           0.0709662     0.4528730    -2.9852290
C           1.5258408     0.5809824    -1.4082353
H           2.0068093    -0.3555664    -1.6758130
C           2.0155096     1.3201675    -0.3216566
C           1.3904838     2.5312059     0.0024822
H           1.7614137     3.1129958     0.8423077
C           0.2914968     2.9856012    -0.7289535
H          -0.1867213     3.9229237    -0.4561373
29
128_C15H12N2_4-6-13-12 (180,) energy =    -688.3224239
C           5.6214588     1.4289575     0.7941309
H           6.4575056     2.1127484     0.6770795
C           5.7699192     0.2363036     1.4991624
H           6.7251108    -0.0310104     1.9426426
C           4.6814565    -0.6165702     1.6390149
H           4.8310310    -1.5336375     2.2019803
C           3.4177402    -0.3245488     1.0877095
C           3.2758709     0.8769903     0.3430710
C           4.3856314     1.7294279     0.2275873
H           4.2638026     2.6463677    -0.3420609
C           0.3725721    -2.2210260     1.4113453
H          -0.6780735    -2.3703811     1.2019662
N           1.0515312    -1.1430611     0.9097560
C           2.3000338    -1.2497589     1.3406598
N           2.4312552    -2.3849579     2.1147714
H           3.2630473    -2.7065927     2.5847568
C           1.2066786    -3.0089511     2.1658638
H           1.0532970    -3.9243074     2.7176601
C          -0.1838584     2.3186967    -1.7755276
H          -1.0403956     2.7011699    -2.3246731
C           0.4757584     1.1675899    -2.2148265
H           0.1344184     0.6525014    -3.1091759
C           1.5705479     0.6737265    -1.5104006
H           2.0748424    -0.2254279    -1.8516601
C           2.0304963     1.3239981    -0.3564705
C           1.3707585     2.4841155     0.0687821
H           1.7214549     2.9989098     0.9595953
C           0.2654642     2.9743391    -0.6301378
H          -0.2397778     3.8706133    -0.2791706
