23
062_C8H11N3O_0-2-3-8 (-165,) energy =    -550.9669149
N           4.8058295     0.3067218    -1.4200177
H           5.7052393     0.3617572    -1.8845967
C           4.0897911    -0.7956324    -1.9762274
N           2.7341534    -0.7849782    -1.8308770
C           1.9489418     0.3486754    -1.3753703
H           2.5418000     1.2612595    -1.4341377
H           1.6084646     0.2155076    -0.3426095
H           1.0758341     0.4578595    -2.0314974
C           2.0006422    -2.0164891    -2.0765309
H           1.4719240    -2.3283597    -1.1659799
H           2.7047956    -2.7906141    -2.3777614
H           1.2610780    -1.8749597    -2.8756436
O           4.7083913    -1.6531879    -2.5972485
C           5.0264220     1.3298338     2.5924537
H           5.0490163     1.5659854     3.6511699
C           5.9518273     1.8791859     1.6977769
H           6.7207164     2.5640398     2.0454691
C           5.8790364     1.5454658     0.3545819
H           6.5757409     1.9623465    -0.3674357
C           4.8722838     0.6491369    -0.0616367
N           3.9835267     0.1184724     0.7835626
C           4.0686481     0.4645179     2.0761781
H           3.3256724     0.0107118     2.7302922
23
062_C8H11N3O_0-2-3-8 (-150,) energy =    -550.9647755
N           4.8195956     0.3042048    -1.4685419
H           5.7277689     0.3669038    -1.9148856
C           4.0932214    -0.7691853    -2.0575761
N           2.7311106    -0.7457793    -1.9180234
C           1.9737401     0.4108949    -1.4714735
H           2.5513794     1.3202670    -1.6410392
H           1.7173014     0.3465034    -0.4075538
H           1.0501085     0.4714215    -2.0606294
C           2.0272145    -2.0188767    -1.8757216
H           1.7141760    -2.2453227    -0.8467380
H           2.6926505    -2.8010600    -2.2392007
H           1.1351636    -1.9850958    -2.5131983
O           4.7005567    -1.6305218    -2.6820723
C           4.9524031     1.2478723     2.5671585
H           4.9550469     1.4589318     3.6314023
C           5.8664079     1.8517019     1.6963991
H           6.6053968     2.5560201     2.0690701
C           5.8188428     1.5489064     0.3445710
H           6.5047553     2.0102892    -0.3603680
C           4.8516824     0.6254295    -0.1035850
N           3.9748398     0.0413420     0.7188558
C           4.0318658     0.3614159     2.0198544
H           3.2987716    -0.1339485     2.6545158
23
062_C8H11N3O_0-2-3-8 (-135,) energy =    -550.9611107
N           4.8258001     0.2929608    -1.5132939
H           5.7396595     0.3670217    -1.9457715
C           4.0785625    -0.7309315    -2.1523088
N           2.7105776    -0.7096835    -1.9902238
C           1.9827953     0.4769643    -1.5677329
H           2.5416114     1.3724299    -1.8446351
H           1.8004256     0.4901798    -0.4859761
H           1.0187670     0.4960226    -2.0909079
C           2.0550008    -1.9750764    -1.6846711
H           1.9209310    -2.0807688    -0.5987747
H           2.6698244    -2.7928681    -2.0611739
H           1.0730525    -2.0197970    -2.1702531
O           4.6658973    -1.5705150    -2.8207998
C           4.8730820     1.1540168     2.5415624
H           4.8566518     1.3403986     3.6102518
C           5.7840921     1.7995241     1.6984570
H           6.5003263     2.5127841     2.0975343
C           5.7611293     1.5283331     0.3390136
H           6.4429666     2.0238724    -0.3463006
C           4.8241705     0.5920401    -0.1435919
N           3.9510713    -0.0331360     0.6532738
C           3.9806952     0.2591263     1.9617005
H           3.2506615    -0.2672713     2.5743738
23
062_C8H11N3O_0-2-3-8 (-120,) energy =    -550.9562762
N           4.8287657     0.2600106    -1.5197682
H           5.7425318     0.3568128    -1.9473592
C           4.0528600    -0.6814134    -2.2356106
N           2.6780549    -0.6884094    -2.0383828
C           1.9691567     0.5171394    -1.6282300
H           2.4931761     1.4000882    -2.0004131
H           1.8611886     0.5975988    -0.5389485
H           0.9698513     0.4975487    -2.0802473
C           2.0967346    -1.9271272    -1.5280536
H           2.1001211    -1.9304760    -0.4295118
H           2.6767958    -2.7733417    -1.9004385
H           1.0658014    -2.0287413    -1.8868060
O           4.6189009    -1.4526180    -2.9956354
C           4.8089315     1.1047885     2.5369942
H           4.7766203     1.2848092     3.6063966
C           5.7360853     1.7498857     1.7117192
H           6.4495109     2.4574112     2.1256340
C           5.7319935     1.4864309     0.3504630
H           6.4262092     1.9834769    -0.3211528
C           4.7980711     0.5576148    -0.1521198
N           3.9102938    -0.0677523     0.6281223
C           3.9206730     0.2182267     1.9381264
H           3.1781044    -0.3071539     2.5362406
23
062_C8H11N3O_0-2-3-8 (-105,) energy =    -550.9508409
N           4.8527398     0.0364474    -1.3331028
H           5.7202511     0.0759877    -1.8539836
C           3.7977657    -0.3955845    -2.1229086
N           2.4973709    -0.2971562    -1.5318172
C           1.5642399     0.3181925    -2.4887988
H           1.9478138     1.2938472    -2.8013487
H           0.6098534     0.4722015    -1.9750989
H           1.3962294    -0.2945919    -3.3865075
C           2.0015546    -1.6179577    -1.1142771
H           1.0240459    -1.4861931    -0.6392329
H           2.6838504    -2.0399700    -0.3733490
H           1.8935428    -2.3120216    -1.9635219
O           4.0094692    -0.7093701    -3.2833313
C           5.1095634     1.0472003     2.6763124
H           5.1454895     1.2747843     3.7367783
C           5.9859171     1.6481319     1.7694768
H           6.7268805     2.3683952     2.1054524
C           5.8885259     1.3260656     0.4221193
H           6.5329233     1.7944433    -0.3164290
C           4.9182859     0.3882573     0.0260632
N           4.0934663    -0.2122694     0.8869292
C           4.1847079     0.1334270     2.1770505
H           3.4872366    -0.3668968     2.8468075
23
062_C8H11N3O_0-2-3-8 (-90,) energy =    -550.9543696
N           4.8201491     0.0841992    -1.3191840
H           5.6758042     0.1977239    -1.8480689
C           3.7606650    -0.2230079    -2.1718732
N           2.4670927    -0.2634064    -1.5953396
C           1.4576930     0.2033848    -2.5572227
H           1.7369025     1.1893727    -2.9360948
H           0.5051104     0.2888573    -2.0247328
H           1.3319834    -0.4735817    -3.4142455
C           2.1053132    -1.5975494    -1.0889529
H           1.1407343    -1.5260262    -0.5767168
H           2.8475714    -1.9266690    -0.3606944
H           2.0208611    -2.3350163    -1.9033912
O           3.9860262    -0.3051352    -3.3705986
C           5.1147145     1.0386553     2.7010069
H           5.1563146     1.2608195     3.7623075
C           6.0914151     1.5050698     1.8160833
H           6.9204143     2.1110397     2.1715049
C           5.9849952     1.1967542     0.4678690
H           6.7135067     1.5631638    -0.2501982
C           4.8970748     0.4085915     0.0419789
N           3.9723978    -0.0608283     0.8817732
C           4.0824663     0.2676065     2.1757917
H           3.3026246    -0.1262267     2.8256089
23
062_C8H11N3O_0-2-3-8 (-75,) energy =    -550.9584931
N           4.7759557     0.1380099    -1.3152586
H           5.6183714     0.3181286    -1.8468352
C           3.7082077    -0.0582044    -2.2020888
N           2.4375331    -0.2618150    -1.6498084
C           1.3688765     0.0790838    -2.5959350
H           1.5454264     1.0731602    -3.0103389
H           0.4232724     0.0846410    -2.0446491
H           1.2934162    -0.6327523    -3.4305768
C           2.2095077    -1.5894513    -1.0614832
H           1.2694310    -1.5706865    -0.5017429
H           3.0079767    -1.8305317    -0.3603762
H           2.1432686    -2.3664260    -1.8394739
O           3.9254349     0.0787101    -3.3988339
C           5.1058243     1.0436072     2.7147314
H           5.1537417     1.2631119     3.7762435
C           6.1634775     1.3538298     1.8533531
H           7.0655649     1.8293800     2.2287909
C           6.0480684     1.0562458     0.5046318
H           6.8463734     1.2990292    -0.1916097
C           4.8629533     0.4397994     0.0487770
N           3.8568624     0.1226961     0.8659599
C           3.9846169     0.4333818     2.1633531
H           3.1376324     0.1642216     2.7925795
23
062_C8H11N3O_0-2-3-8 (-60,) energy =    -550.9622183
N           4.7324878     0.1742151    -1.3303210
H           5.5683007     0.4034529    -1.8536062
C           3.6520571     0.1015414    -2.2318803
N           2.4110115    -0.2521904    -1.7262589
C           1.3111065     0.0182365    -2.6534120
H           1.4111901     1.0254348    -3.0592557
H           0.3720931    -0.0560504    -2.0959485
H           1.2844684    -0.6900200    -3.4943317
C           2.2758566    -1.5565237    -1.0712027
H           1.3853744    -1.5512467    -0.4353255
H           3.1364706    -1.7540181    -0.4350823
H           2.1749462    -2.3605360    -1.8169148
O           3.8502258     0.4356075    -3.3939735
C           5.0541052     1.0234825     2.7143834
H           5.0971189     1.2349868     3.7777044
C           6.1687106     1.1944003     1.8858957
H           7.1130120     1.5483871     2.2907848
C           6.0581830     0.9127323     0.5337979
H           6.9044244     1.0435759    -0.1354093
C           4.8168752     0.4565291     0.0383620
N           3.7522968     0.2772024     0.8230024
C           3.8812011     0.5646597     2.1260219
H           2.9868455     0.4090998     2.7275094
23
062_C8H11N3O_0-2-3-8 (-45,) energy =    -550.9649641
N           4.7482148     0.1904787    -1.3466491
H           5.5708088     0.4664186    -1.8688919
C           3.6448713     0.2003483    -2.2342783
N           2.4517427    -0.3009080    -1.7754851
C           1.3054299    -0.0753750    -2.6498895
H           1.3602187     0.9271207    -3.0739819
H           0.3919391    -0.1714349    -2.0540800
H           1.2659655    -0.7985356    -3.4778648
C           2.3876614    -1.5560580    -1.0314823
H           1.6159784    -1.4976793    -0.2577278
H           3.3385860    -1.7613558    -0.5447775
H           2.1484371    -2.3865891    -1.7130084
O           3.7999300     0.6924848    -3.3466207
C           5.0555201     1.0291096     2.7026270
H           5.0924716     1.2410266     3.7660842
C           6.1976928     1.1062803     1.8977956
H           7.1585883     1.3840113     2.3227020
C           6.0946416     0.8274496     0.5445026
H           6.9633542     0.8817612    -0.1062324
C           4.8313324     0.4719606     0.0232327
N           3.7376559     0.3871300     0.7841900
C           3.8619860     0.6657309     2.0895709
H           2.9447519     0.5882906     2.6715092
23
062_C8H11N3O_0-2-3-8 (-30,) energy =    -550.9666107
N           4.7338409     0.2217917    -1.3540300
H           5.5406846     0.5485749    -1.8723346
C           3.6061590     0.2978975    -2.2174182
N           2.4693654    -0.3496226    -1.8274876
C           1.2808968    -0.1430341    -2.6432948
H           1.3224367     0.8457878    -3.0984740
H           0.3941720    -0.2188798    -2.0046020
H           1.2014313    -0.8920131    -3.4448059
C           2.4628077    -1.5549707    -1.0101286
H           1.8148326    -1.4326319    -0.1364927
H           3.4688491    -1.7835286    -0.6631823
H           2.0999089    -2.4008493    -1.6114350
O           3.7112972     0.9301329    -3.2634991
C           5.0149837     1.0191208     2.7059468
H           5.0429155     1.2242248     3.7709945
C           6.1773765     1.0218110     1.9266670
H           7.1453658     1.2307505     2.3743363
C           6.0861671     0.7545408     0.5700607
H           6.9707846     0.7465240    -0.0610259
C           4.8133909     0.4907908     0.0194924
N           3.6986891     0.4810694     0.7550240
C           3.8130243     0.7411454     2.0651898
H           2.8799138     0.7255580     2.6264862
23
062_C8H11N3O_0-2-3-8 (-15,) energy =    -550.9672459
N           4.7839357     0.2237518    -1.3056560
H           5.5723101     0.6024984    -1.8182982
C           3.6340159     0.3352520    -2.1444703
N           2.5677545    -0.4568941    -1.8428993
C           1.3352878    -0.2634944    -2.5909878
H           1.4024236     0.6691645    -3.1488969
H           0.4850887    -0.2228014    -1.8991457
H           1.1688919    -1.0886937    -3.2975401
C           2.6041621    -1.6056643    -0.9533135
H           2.0300747    -1.4222032    -0.0390894
H           3.6326637    -1.8362144    -0.6786775
H           2.1808579    -2.4732852    -1.4767443
O           3.6828662     1.0831876    -3.1157505
C           5.0066720     1.0325489     2.7562598
H           5.0171065     1.2422576     3.8207210
C           6.1861433     0.9920753     2.0038967
H           7.1499820     1.1701041     2.4733924
C           6.1176307     0.7200477     0.6467422
H           7.0153336     0.6749019     0.0362555
C           4.8496586     0.4986219     0.0685617
N           3.7177188     0.5339015     0.7771090
C           3.8107360     0.7931975     2.0893823
H           2.8649409     0.8133851     2.6287571
23
062_C8H11N3O_0-2-3-8 (0,) energy =    -550.9669650
N           4.7589681     0.2615217    -1.3428504
H           5.5258772     0.6818043    -1.8568564
C           3.5752048     0.4197774    -2.1354519
N           2.5778180    -0.4866331    -1.9316360
C           1.3105532    -0.2827876    -2.6178482
H           1.4066722     0.5754417    -3.2807159
H           0.5052167    -0.1013480    -1.8934205
H           1.0523100    -1.1714795    -3.2076616
C           2.6240145    -1.5865675    -0.9838020
H           2.0940855    -1.3438727    -0.0561941
H           3.6586232    -1.8305878    -0.7438369
H           2.1578180    -2.4653400    -1.4460348
O           3.5614953     1.2706669    -3.0179636
C           4.9883900     1.0144976     2.7290985
H           4.9977262     1.2131736     3.7956904
C           6.1723542     0.9178104     1.9891063
H           7.1385254     1.0377973     2.4720492
C           6.1054859     0.6617205     0.6284073
H           7.0055866     0.5690535     0.0270949
C           4.8344384     0.5182354     0.0345634
N           3.6969943     0.6095531     0.7308667
C           3.7884455     0.8464650     2.0474201
H           2.8392078     0.9119265     2.5769670
23
062_C8H11N3O_0-2-3-8 (15,) energy =    -550.9672449
N           4.8996758    -0.6064335    -0.9270173
H           5.8148583    -1.0293095    -1.0336927
C           3.9337738    -1.6556663    -0.9777502
N           2.6475856    -1.3022771    -1.2551270
C           1.6195571    -2.3276886    -1.1699049
H           2.0339790    -3.2042069    -0.6742807
H           1.2683655    -2.6184277    -2.1699222
H           0.7635734    -1.9474946    -0.5989417
C           2.2307525    -0.0209389    -1.7996767
H           1.6089804    -0.1980684    -2.6873420
H           3.1009692     0.5619117    -2.0987693
H           1.6561906     0.5571112    -1.0683072
O           4.3126852    -2.8133224    -0.8312142
C           4.9493525     2.6359792     1.6587283
H           4.9170819     3.4745874     2.3463743
C           6.1232002     2.2865946     0.9813923
H           7.0383674     2.8540114     1.1283789
C           6.1110912     1.2061306     0.1135830
H           7.0032556     0.9140210    -0.4334898
C           4.9072686     0.4884734    -0.0496370
N           3.7809730     0.8136617     0.5908182
C           3.8161416     1.8671829     1.4195149
H           2.8774279     2.0974891     1.9211550
23
062_C8H11N3O_0-2-3-8 (30,) energy =    -550.9666107
N           4.8815061    -0.6155016    -0.9395087
H           5.7988819    -1.0157054    -1.0966122
C           3.9283930    -1.6659694    -1.0443377
N           2.6130517    -1.3152593    -1.1468482
C           1.6379936    -2.3960774    -1.1047594
H           2.0305966    -3.2136637    -0.5013543
H           1.4136387    -2.7820240    -2.1099531
H           0.7104190    -2.0203794    -0.6593176
C           2.1490301    -0.0805577    -1.7642451
H           1.6060843    -0.3180342    -2.6903068
H           2.9932812     0.5599336    -2.0127225
H           1.4842478     0.4689481    -1.0903120
O           4.3316699    -2.8246016    -1.0442035
C           4.9748971     2.6223165     1.6500822
H           4.9548344     3.4625505     2.3362151
C           6.1548901     2.2224275     1.0127860
H           7.0883000     2.7496713     1.1911863
C           6.1260081     1.1415616     0.1461675
H           7.0248261     0.8086619    -0.3658742
C           4.8981675     0.4764978    -0.0605837
N           3.7655925     0.8528992     0.5387987
C           3.8188974     1.9021607     1.3715388
H           2.8741370     2.1733297     1.8404605
23
062_C8H11N3O_0-2-3-8 (45,) energy =    -550.9649641
N           4.8846506    -0.5920540    -0.9654735
H           5.8015774    -0.9697289    -1.1707777
C           3.9364919    -1.6287123    -1.1434758
N           2.6061021    -1.2956985    -1.0764121
C           1.6827798    -2.4255457    -1.0564246
H           2.0888493    -3.2190202    -0.4292407
H           1.5070561    -2.8362021    -2.0616821
H           0.7280451    -2.0845207    -0.6430651
C           2.0799300    -0.1164808    -1.7587893
H           1.6670985    -0.4007435    -2.7387111
H           2.8648299     0.6219183    -1.9070120
H           1.2886006     0.3448844    -1.1600046
O           4.3503620    -2.7715930    -1.3049893
C           5.0166568     2.6247187     1.6478380
H           5.0073968     3.4627490     2.3369207
C           6.2032228     2.1653468     1.0653381
H           7.1535810     2.6411347     1.2921558
C           6.1592061     1.0895772     0.1932415
H           7.0643068     0.7086732    -0.2723439
C           4.9088879     0.4922097    -0.0786021
N           3.7703154     0.9284548     0.4651908
C           3.8393220     1.9678701     1.3089624
H           2.8882919     2.2877377     1.7322749
23
062_C8H11N3O_0-2-3-8 (60,) energy =    -550.9622183
N           4.8630317    -0.5744352    -0.9678239
H           5.7780880    -0.9293492    -1.2161553
C           3.9124367    -1.5816194    -1.2273815
N           2.5776215    -1.2840527    -1.0022248
C           1.7175526    -2.4682556    -0.9803212
H           2.1660909    -3.2371678    -0.3504309
H           1.5598132    -2.8936099    -1.9821570
H           0.7494284    -2.1761223    -0.5614849
C           1.9781457    -0.1773697    -1.7535789
H           1.7107178    -0.4959610    -2.7732294
H           2.6646910     0.6655926    -1.8023613
H           1.0724357     0.1594734    -1.2402053
O           4.3232594    -2.6881446    -1.5562558
C           5.0123530     2.6370337     1.6491412
H           5.0087028     3.4765573     2.3364711
C           6.2043734     2.1094552     1.1405174
H           7.1647484     2.5304675     1.4257812
C           6.1523000     1.0342030     0.2682542
H           7.0618026     0.5983302    -0.1365948
C           4.8888868     0.5086858    -0.0810904
N           3.7460746     1.0138480     0.3878841
C           3.8223803     2.0483937     1.2370016
H           2.8667385     2.4249132     1.5987194
23
062_C8H11N3O_0-2-3-8 (75,) energy =    -550.9584931
N           4.8906699    -0.5351995    -1.0004995
H           5.7975834    -0.8743629    -1.2957203
C           3.9121523    -1.4722966    -1.3602343
N           2.5910092    -1.2068456    -0.9791927
C           1.7840262    -2.4307574    -0.9142890
H           2.3014168    -3.1832782    -0.3167048
H           1.5784790    -2.8606077    -1.9052538
H           0.8350077    -2.1803691    -0.4297445
C           1.9037430    -0.1697351    -1.7620119
H           1.6809113    -0.5197332    -2.7824013
H           2.5115015     0.7337404    -1.8018117
H           0.9631595     0.0834893    -1.2634293
O           4.2833811    -2.5180396    -1.8767090
C           5.0668835     2.6405207     1.6553472
H           5.0705596     3.4760717     2.3475373
C           6.2515791     2.0097124     1.2611147
H           7.2127352     2.3417370     1.6442606
C           6.1895892     0.9432901     0.3780363
H           7.0911977     0.4234143     0.0652766
C           4.9255669     0.5358883    -0.1000607
N           3.7920422     1.1436711     0.2553078
C           3.8750540     2.1627993     1.1216610
H           2.9261634     2.6245139     1.3903298
23
062_C8H11N3O_0-2-3-8 (90,) energy =    -550.9543697
N           4.9162021    -0.5045581    -1.0576531
H           5.8147169    -0.8092064    -1.4106586
C           3.9075949    -1.3614549    -1.4962854
N           2.6128217    -1.1519163    -0.9605585
C           1.9024165    -2.4305051    -0.8103788
H           2.5106585    -3.1242997    -0.2252596
H           1.6624424    -2.9069246    -1.7716340
H           0.9734952    -2.2330733    -0.2659622
C           1.8055852    -0.2148104    -1.7589566
H           1.5815846    -0.6179833    -2.7597413
H           2.3301395     0.7373948    -1.8471985
H           0.8630515    -0.0317632    -1.2335670
O           4.2188899    -2.3110282    -2.2004696
C           5.0751961     2.6329566     1.6424856
H           5.0736826     3.4656816     2.3381975
C           6.2341555     1.8940796     1.3866463
H           7.1686428     2.1343322     1.8864195
C           6.1773187     0.8349052     0.4927800
H           7.0534878     0.2253856     0.2892571
C           4.9489077     0.5517418    -0.1372878
N           3.8428495     1.2652019     0.0823807
C           3.9149808     2.2694570     0.9659810
H           2.9888241     2.8195800     1.1244738
23
062_C8H11N3O_0-2-3-8 (105,) energy =    -550.9508409
N           4.9336470    -0.4879159    -1.1120512
H           5.8196667    -0.7502652    -1.5262951
C           3.8841918    -1.2345978    -1.6263718
N           2.6244479    -1.0748369    -0.9648396
C           2.0316606    -2.3960773    -0.7038323
H           2.7285307    -3.0029474    -0.1183421
H           1.7758000    -2.9460020    -1.6212915
H           1.1241764    -2.2453761    -0.1103498
C           1.7037957    -0.2525304    -1.7654030
H           1.4744832    -0.7105637    -2.7412254
H           2.1416297     0.7370311    -1.9125919
H           0.7715589    -0.1311056    -1.2043833
O           4.1069300    -2.0528105    -2.5043105
C           5.0755043     2.6065367     1.6388071
H           5.0704693     3.4347896     2.3399808
C           6.1835094     1.7658557     1.5082472
H           7.0722072     1.9181301     2.1146415
C           6.1308079     0.7156246     0.6011520
H           6.9611468     0.0236575     0.4925350
C           4.9642385     0.5519462    -0.1669849
N           3.9098157     1.3648646    -0.0699986
C           3.9699251     2.3536641     0.8305053
H           3.0866234     2.9873427     0.8904570
23
062_C8H11N3O_0-2-3-8 (120,) energy =    -550.9562763
N           4.9976081    -0.7913493    -1.0067511
H           5.9359011    -0.9847033    -1.3374784
C           4.0471107    -1.1994736    -1.9708899
N           2.7263262    -1.3537351    -1.5698497
C           2.3877938    -1.6831258    -0.1911060
H           3.2019336    -2.2500517     0.2655439
H           1.4930198    -2.3177370    -0.1996500
H           2.1838835    -0.7947516     0.4202812
C           1.7338846    -0.5205898    -2.2430427
H           0.7677469    -1.0382985    -2.2645217
H           2.0539877    -0.3444738    -3.2715236
H           1.6188353     0.4393110    -1.7212379
O           4.4205824    -1.3967716    -3.1173642
C           4.8087786     2.3673251     1.6687597
H           4.7202739     3.2118936     2.3440044
C           5.9730835     1.5942518     1.6089774
H           6.8229060     1.8204044     2.2473755
C           6.0322369     0.5230857     0.7305878
H           6.9140393    -0.1086175     0.6720137
C           4.9148583     0.2623821    -0.0885064
N           3.7987011     0.9972007    -0.0427518
C           3.7579226     2.0153750     0.8288169
H           2.8294646     2.5837227     0.8389763
23
062_C8H11N3O_0-2-3-8 (135,) energy =    -550.9611106
N           4.9341059    -0.8150269    -0.9660634
H           5.8630592    -1.0037088    -1.3253832
C           3.9684893    -1.1134196    -1.9628393
N           2.6700045    -1.3107499    -1.5466989
C           2.3207394    -1.6252536    -0.1699973
H           3.1621238    -2.1149177     0.3230755
H           1.4729124    -2.3213423    -0.1786555
H           2.0416105    -0.7322481     0.4029446
C           1.6162403    -0.6609619    -2.3160257
H           0.7277545    -1.3019444    -2.3582363
H           1.9732424    -0.4893544    -3.3317130
H           1.3428973     0.2971139    -1.8516092
O           4.3220267    -1.1947321    -3.1312175
C           4.8363252     2.3602710     1.6974899
H           4.7700893     3.2075703     2.3718877
C           5.9878098     1.5689671     1.6244631
H           6.8494801     1.7839067     2.2508180
C           6.0194895     0.4952458     0.7479462
H           6.8910721    -0.1493924     0.6779638
C           4.8871976     0.2497278    -0.0552645
N           3.7826690     1.0011490     0.0038141
C           3.7693825     2.0230030     0.8720865
H           2.8501846     2.6061409     0.8926390
23
062_C8H11N3O_0-2-3-8 (150,) energy =    -550.9647754
N           4.9336017    -0.7763575    -0.9391734
H           5.8543961    -0.9656897    -1.3189444
C           3.9624624    -1.0165678    -1.9520542
N           2.6774370    -1.2443677    -1.5370393
C           2.2997156    -1.5325730    -0.1640011
H           3.1593016    -1.9211890     0.3832406
H           1.5168341    -2.3012603    -0.1719530
H           1.9231291    -0.6419993     0.3526158
C           1.5932891    -0.8444516    -2.4217944
H           0.8362664    -1.6359644    -2.4824176
H           1.9989562    -0.6656266    -3.4168804
H           1.1142823     0.0704468    -2.0454945
O           4.3160322    -1.0448900    -3.1246359
C           4.9321909     2.3745050     1.7566597
H           4.8889286     3.2133248     2.4434476
C           6.0826293     1.5880399     1.6293756
H           6.9673898     1.7990651     2.2241201
C           6.0846267     0.5262248     0.7383525
H           6.9563230    -0.1122335     0.6252141
C           4.9218427     0.2852146    -0.0225232
N           3.8180124     1.0305042     0.0893395
C           3.8360901     2.0431039     0.9683373
H           2.9166179     2.6230195     1.0305744
23
062_C8H11N3O_0-2-3-8 (165,) energy =    -550.9669149
N           4.9093623    -0.7447176    -0.9047355
H           5.8218398    -0.9558932    -1.2928094
C           3.9392791    -0.9298353    -1.9352912
N           2.6510640    -1.1342639    -1.5381751
C           2.2278863    -1.4120534    -0.1769195
H           3.0845564    -1.7112700     0.4266761
H           1.5081339    -2.2405203    -0.1947517
H           1.7583710    -0.5374649     0.2866569
C           1.5911656    -0.9978073    -2.5245873
H           1.0222849    -1.9325713    -2.6149317
H           2.0373573    -0.7593938    -3.4889052
H           0.8996622    -0.1984108    -2.2267651
O           4.3112663    -0.9547765    -3.1035070
C           5.0310442     2.3664526     1.8343425
H           5.0186246     3.1932819     2.5367427
C           6.1704463     1.5744704     1.6523530
H           7.0777548     1.7693563     2.2179592
C           6.1335162     0.5294764     0.7426841
H           6.9973767    -0.1104223     0.5852981
C           4.9415817     0.3082168     0.0212110
N           3.8477648     1.0578746     0.1866647
C           3.9054669     2.0564470     1.0796236
H           2.9931714     2.6417681     1.1841572
23
062_C8H11N3O_0-2-3-8 (180,) energy =    -550.9670488
N           4.7671318     0.3178996    -1.3730609
H           5.6546549     0.3693890    -1.8607091
C           4.0683314    -0.8173439    -1.8890490
N           2.7190078    -0.8537942    -1.7056828
C           1.9067090     0.2655233    -1.2562012
H           2.5007427     1.1778488    -1.2311564
H           1.4976259     0.0860052    -0.2565910
H           1.0790196     0.4096961    -1.9631258
C           1.9919715    -2.0027420    -2.2249163
H           1.2537962    -2.3380563    -1.4868322
H           2.6979097    -2.8055988    -2.4310722
H           1.4636665    -1.7465171    -3.1541527
O           4.6963907    -1.6500207    -2.5350647
C           5.0920844     1.4320558     2.6090405
H           5.1399402     1.6938722     3.6608698
C           6.0022094     1.9505046     1.6808336
H           6.7847263     2.6360395     1.9951636
C           5.8975871     1.5838337     0.3483174
H           6.5832629     1.9747845    -0.3983933
C           4.8730894     0.6880195    -0.0233851
N           3.9985377     0.1874998     0.8537560
C           4.1159442     0.5627763     2.1355423
H           3.3838329     0.1317232     2.8167559
