23
062_C8H11N3O_2-0-19-17 (-165,) energy =    -550.9672471
N           4.8864028    -0.3673493    -0.9924535
H           5.7816954    -0.3732754    -1.4678003
C           3.8696643    -0.5354860    -1.9796208
N           2.6545193    -0.9758681    -1.5484053
C           2.3804108    -1.5274646    -0.2323305
H           1.7806736    -0.8406114     0.3742998
H           3.3135161    -1.7324537     0.2913824
H           1.8348668    -2.4725886    -0.3518750
C           1.5599624    -1.0220156    -2.5052543
H           1.2979153    -2.0602195    -2.7521227
H           1.8654125    -0.5092337    -3.4159210
H           0.6742171    -0.5322437    -2.0819357
O           4.1538867    -0.3464383    -3.1580298
C           4.8200895     2.2153269     2.2516420
H           4.7556176     2.8988519     3.0917764
C           6.0357241     1.6406436     1.8634456
H           6.9524288     1.8658822     2.4019867
C           6.0629742     0.7725188     0.7834079
H           6.9884040     0.3019845     0.4629873
C           4.8554748     0.5074552     0.1035060
N           3.6891517     1.0489767     0.4660980
C           3.6871915     1.8779065     1.5200034
H           2.7167229     2.2967679     1.7818675
23
062_C8H11N3O_2-0-19-17 (-150,) energy =    -550.9669666
N           4.8607104    -0.5082266    -0.8629252
H           5.7667891    -0.5472917    -1.3177546
C           3.8788238    -0.5954395    -1.9040789
N           2.6289409    -0.9901180    -1.5383935
C           2.2789298    -1.5793036    -0.2563479
H           1.6346169    -0.9124045     0.3255446
H           3.1792058    -1.7835434     0.3205734
H           1.7515002    -2.5264469    -0.4332871
C           1.5761224    -0.9656494    -2.5421293
H           1.2885563    -1.9853614    -2.8335268
H           1.9380588    -0.4358081    -3.4218393
H           0.6909484    -0.4579526    -2.1396186
O           4.2232183    -0.3764385    -3.0604514
C           4.8374297     2.2530487     2.2350565
H           4.7823341     2.9746680     3.0433874
C           6.0631109     1.7668386     1.7666062
H           6.9981124     2.1057694     2.2047760
C           6.0785506     0.8492096     0.7279461
H           7.0142987     0.4553366     0.3405817
C           4.8468850     0.4313527     0.1815916
N           3.6713450     0.8925260     0.6181397
C           3.6824798     1.7812425     1.6217231
H           2.7036814     2.1326968     1.9447876
23
062_C8H11N3O_2-0-19-17 (-135,) energy =    -550.9657703
N           4.8839077    -0.6064681    -0.7766290
H           5.7997878    -0.6861231    -1.2072877
C           3.9472197    -0.6190085    -1.8668744
N           2.6559123    -0.9163682    -1.5588137
C           2.2183592    -1.5586983    -0.3280024
H           1.5428655    -0.9091187     0.2371517
H           3.0770531    -1.7907455     0.2982082
H           1.6952231    -2.4920514    -0.5789397
C           1.6642503    -0.8308101    -2.6205194
H           1.4116929    -1.8276428    -3.0089389
H           2.0641098    -0.2289162    -3.4353105
H           0.7500590    -0.3688348    -2.2300298
O           4.3569536    -0.4119573    -3.0035464
C           4.9231145     2.2836413     2.2080979
H           4.8823679     3.0310050     2.9936486
C           6.1341795     1.8931909     1.6276844
H           7.0720990     2.3387855     1.9483118
C           6.1286945     0.9399192     0.6203946
H           7.0519143     0.6283985     0.1393734
C           4.8952842     0.3787491     0.2311829
N           3.7325862     0.7516281     0.7731785
C           3.7607686     1.6846406     1.7345306
H           2.7910790     1.9623282     2.1450916
23
062_C8H11N3O_2-0-19-17 (-120,) energy =    -550.9638589
N           4.8751070    -0.7297595    -0.6533112
H           5.7996421    -0.8467505    -1.0578810
C           3.9899054    -0.6885061    -1.7884765
N           2.6670211    -0.8863761    -1.5344864
C           2.1388136    -1.5478728    -0.3482813
H           1.4279568    -0.9008710     0.1752616
H           2.9477101    -1.7899757     0.3360076
H           1.6263765    -2.4726968    -0.6500828
C           1.7377305    -0.7446442    -2.6462009
H           1.4915232    -1.7207405    -3.0882316
H           2.1891323    -0.1188004    -3.4149547
H           0.8114511    -0.2827170    -2.2864632
O           4.4601855    -0.5133273    -2.9064546
C           4.9549481     2.3072525     2.1894850
H           4.9251281     3.0853158     2.9452858
C           6.1267741     2.0124413     1.4870915
H           7.0420071     2.5675406     1.6748080
C           6.1055155     1.0141240     0.5229526
H           6.9933799     0.7794845    -0.0575718
C           4.9055992     0.3079356     0.3098224
N           3.7784727     0.5917830     0.9677985
C           3.8143328     1.5734796     1.8782218
H           2.8730518     1.7754785     2.3872726
23
062_C8H11N3O_2-0-19-17 (-105,) energy =    -550.9615383
N           4.8558512    -0.8397331    -0.5409782
H           5.7894612    -0.9882808    -0.9146677
C           4.0277538    -0.7593120    -1.7167443
N           2.6815650    -0.8523751    -1.5187123
C           2.0581167    -1.4965375    -0.3682103
H           1.3197953    -0.8316781     0.0926386
H           2.8087665    -1.7383071     0.3785296
H           1.5501667    -2.4150954    -0.6968740
C           1.8191380    -0.6735160    -2.6784398
H           1.5329625    -1.6406193    -3.1165263
H           2.3464752    -0.0923911    -3.4337645
H           0.9073464    -0.1479714    -2.3729608
O           4.5555249    -0.6339186    -2.8154375
C           4.9531405     2.3053888     2.1917868
H           4.9303654     3.1037970     2.9265328
C           6.0497483     2.1188278     1.3471780
H           6.9089611     2.7823047     1.3972853
C           6.0191665     1.0860644     0.4181106
H           6.8411420     0.9314227    -0.2749440
C           4.8957447     0.2399518     0.3873248
N           3.8387431     0.4200404     1.1828223
C           3.8744770     1.4357370     2.0544981
H           2.9905738     1.5504472     2.6801061
23
062_C8H11N3O_2-0-19-17 (-90,) energy =    -550.9594955
N           4.8723263    -0.9630427    -0.4954649
H           5.8117081    -1.1484921    -0.8370711
C           4.0876031    -0.8920309    -1.6948499
N           2.7298131    -0.8282101    -1.5410164
C           2.0094458    -1.3777315    -0.3964268
H           1.2332160    -0.6760893    -0.0695190
H           2.6885359    -1.5434210     0.4349878
H           1.5240982    -2.3236693    -0.6801535
C           1.9377514    -0.6797645    -2.7549578
H           1.6497939    -1.6564254    -3.1706994
H           2.5187184    -0.1437607    -3.5045101
H           1.0261986    -0.1195530    -2.5199233
O           4.6503186    -0.8992175    -2.7840410
C           4.9971393     2.2411180     2.1774425
H           4.9916338     3.0447949     2.9070092
C           5.9426794     2.1918632     1.1518396
H           6.6956609     2.9689527     1.0516077
C           5.8949152     1.1406430     0.2423591
H           6.5941097     1.0816065    -0.5865649
C           4.9134697     0.1491976     0.4077770
N           4.0035478     0.1938026     1.3827544
C           4.0464000     1.2245940     2.2361584
H           3.2831026     1.2268733     3.0126122
23
062_C8H11N3O_2-0-19-17 (-75,) energy =    -550.9583937
N           4.8767225    -1.0551209    -0.4387472
H           5.8237173    -1.2961416    -0.7184206
C           4.1420811    -1.0039251    -1.6592026
N           2.7915419    -0.7865819    -1.5545482
C           1.9930802    -1.1670692    -0.3936636
H           1.3000305    -0.3586470    -0.1300118
H           2.6319837    -1.3674856     0.4633511
H           1.3999901    -2.0644650    -0.6253829
C           2.0465780    -0.6568950    -2.7992959
H           1.6500031    -1.6262867    -3.1353557
H           2.7031347    -0.2652173    -3.5752013
H           1.2046959     0.0269860    -2.6435233
O           4.7230648    -1.1542672    -2.7291954
C           4.9627329     2.1849101     2.1973850
H           4.9602895     2.9899383     2.9257226
C           5.7048120     2.2705228     1.0190359
H           6.2976084     3.1537617     0.7969734
C           5.6651891     1.2056597     0.1233610
H           6.2125551     1.2340117    -0.8141430
C           4.8936961     0.0798666     0.4474101
N           4.1805985    -0.0077352     1.5720422
C           4.2140706     1.0300695     2.4178374
H           3.6163018     0.9236909     3.3214944
23
062_C8H11N3O_2-0-19-17 (-60,) energy =    -550.9614371
N           5.0259195    -1.0508600    -0.5566584
H           5.5857168    -1.8412733    -0.2582973
C           4.1577738    -1.4006381    -1.6019942
N           2.9810291    -0.6726140    -1.7289961
C           2.0951611    -0.4071076    -0.5952629
H           1.7567883     0.6361618    -0.5972758
H           2.5923476    -0.6070965     0.3522685
H           1.2103221    -1.0574981    -0.6531656
C           2.2736759    -0.8542737    -2.9928335
H           1.6592804    -1.7664635    -2.9953336
H           2.9930907    -0.9254282    -3.8082575
H           1.6201586     0.0097704    -3.1551522
O           4.4971980    -2.2628663    -2.4010510
C           4.9625790     1.8840034     2.3654681
H           4.9747463     2.6074151     3.1744609
C           4.8501520     2.2821468     1.0301172
H           4.7864357     3.3353441     0.7698722
C           4.8567427     1.3164845     0.0314655
H           4.8016732     1.5783085    -1.0193251
C           4.9289874    -0.0338133     0.4125836
N           5.0615849    -0.4273888     1.6850884
C           5.0818419     0.5221451     2.6307093
H           5.1977471     0.1657140     3.6528626
23
062_C8H11N3O_2-0-19-17 (-45,) energy =    -550.9638660
N           4.9387009    -1.1156518    -0.4628315
H           5.4945534    -1.9091107    -0.1674280
C           4.1411534    -1.4090603    -1.5761526
N           2.9812368    -0.6635886    -1.7453773
C           2.0518545    -0.4109528    -0.6439628
H           1.7196270     0.6340944    -0.6424893
H           2.5129357    -0.6274157     0.3182682
H           1.1667711    -1.0552717    -0.7467743
C           2.3298383    -0.8158811    -3.0428392
H           1.7104053    -1.7233401    -3.0895184
H           3.0849356    -0.8777492    -3.8261488
H           1.6904092     0.0559448    -3.2181640
O           4.5135094    -2.2539415    -2.3794347
C           5.0439999     1.9069395     2.3621322
H           5.1048925     2.6529680     3.1478886
C           4.7857073     2.2613411     1.0344933
H           4.6529610     3.3034318     0.7559633
C           4.7310368     1.2713619     0.0622332
H           4.5582813     1.5045252    -0.9822455
C           4.9003096    -0.0650919     0.4659948
N           5.1702120    -0.4164023     1.7299733
C           5.2423029     0.5584369     2.6460141
H           5.4697014     0.2339588     3.6601251
23
062_C8H11N3O_2-0-19-17 (-30,) energy =    -550.9657159
N           4.8272717    -1.1613661    -0.3523998
H           5.4100325    -1.9407301    -0.0735914
C           4.1176292    -1.4007142    -1.5340678
N           2.9649240    -0.6578840    -1.7441248
C           1.9911905    -0.4113986    -0.6818831
H           1.6521474     0.6313366    -0.6953584
H           2.4177201    -0.6233163     0.2970309
H           1.1147934    -1.0613017    -0.8188870
C           2.3767248    -0.7768381    -3.0744198
H           1.7501623    -1.6757094    -3.1680896
H           3.1692111    -0.8342452    -3.8200862
H           1.7562355     0.1054645    -3.2646603
O           4.5448009    -2.2127895    -2.3446542
C           5.1101595     1.9337951     2.3783932
H           5.2197964     2.6973561     3.1415711
C           4.7316480     2.2535360     1.0713612
H           4.5501497     3.2861431     0.7849196
C           4.6135942     1.2436789     0.1253686
H           4.3459776     1.4548351    -0.9033592
C           4.8527568    -0.0803095     0.5367149
N           5.2366138    -0.3982550     1.7807965
C           5.3623467     0.5955476     2.6688270
H           5.6813289     0.2960723     3.6658936
23
062_C8H11N3O_2-0-19-17 (-15,) energy =    -550.9670132
N           4.7171000    -1.2102277    -0.2620746
H           5.3313119    -1.9744319    -0.0095719
C           4.0980675    -1.3996568    -1.5036464
N           2.9525371    -0.6625607    -1.7579124
C           1.9347045    -0.4271419    -0.7355850
H           1.5781679     0.6090499    -0.7717326
H           2.3305611    -0.6232679     0.2592606
H           1.0753740    -1.0933729    -0.8997025
C           2.4265819    -0.7651462    -3.1153570
H           1.8143656    -1.6684862    -3.2506733
H           3.2528753    -0.8033822    -3.8246152
H           1.8064163     0.1140183    -3.3197647
O           4.5810872    -2.1821509    -2.3121368
C           5.1962943     1.9481685     2.3695530
H           5.3580530     2.7254634     3.1091723
C           4.7069061     2.2391075     1.0937251
H           4.4867732     3.2640114     0.8065972
C           4.5212669     1.2121276     0.1766056
H           4.1669040     1.4057599    -0.8286845
C           4.8168914    -0.1011001     0.5854612
N           5.3059282    -0.3916918     1.7999700
C           5.4889844     0.6174997     2.6585039
H           5.8924116     0.3382888     3.6306005
23
062_C8H11N3O_2-0-19-17 (0,) energy =    -550.9677710
N           4.6047060    -1.2263627    -0.1615279
H           5.2386678    -1.9788665     0.0801292
C           4.0757116    -1.3763736    -1.4532658
N           2.9395969    -0.6454941    -1.7539939
C           1.8769486    -0.4227943    -0.7762057
H           1.4781279     0.5943577    -0.8661133
H           2.2481752    -0.5629976     0.2372480
H           1.0523908    -1.1313618    -0.9432693
C           2.4791594    -0.7303978    -3.1360074
H           1.8683452    -1.6282592    -3.3090026
H           3.3388955    -0.7681555    -3.8042155
H           1.8748852     0.1545758    -3.3616683
O           4.6156617    -2.1314671    -2.2512937
C           5.2877592     1.9793682     2.3701216
H           5.5024347     2.7663502     3.0855629
C           4.6846678     2.2492703     1.1398564
H           4.4240646     3.2678046     0.8640552
C           4.4295287     1.2104578     0.2523496
H           3.9875212     1.3926967    -0.7193086
C           4.7840178    -0.0935334     0.6425618
N           5.3810146    -0.3637811     1.8134138
C           5.6220255     0.6550962     2.6444642
H           6.1113804     0.3903845     3.5805416
23
062_C8H11N3O_2-0-19-17 (15,) energy =    -550.9678914
N           4.4745568    -1.2397208    -0.0617808
H           5.1189724    -1.9854257     0.1783424
C           4.0455966    -1.3586984    -1.3998940
N           2.9166379    -0.6441391    -1.7514221
C           1.8096574    -0.4316306    -0.8222563
H           1.3926004     0.5743763    -0.9474058
H           2.1447871    -0.5469269     0.2068538
H           1.0081329    -1.1610327    -1.0106125
C           2.5281484    -0.7115649    -3.1559948
H           1.9268430    -1.6070369    -3.3697313
H           3.4216971    -0.7428529    -3.7785499
H           1.9363016     0.1760324    -3.4030495
O           4.6528534    -2.0805947    -2.1790395
C           5.3583191     2.0078734     2.3577000
H           5.6243538     2.8036837     3.0455551
C           4.6483607     2.2589018     1.1822549
H           4.3504912     3.2714404     0.9225207
C           4.3263533     1.2087770     0.3297035
H           3.8017417     1.3812058    -0.6013273
C           4.7357111    -0.0863147     0.6939074
N           5.4321607    -0.3383866     1.8129337
C           5.7290546     0.6894424     2.6135244
H           6.2979941     0.4378530     3.5072937
23
062_C8H11N3O_2-0-19-17 (30,) energy =    -550.9671965
N           4.3439544    -1.2592534     0.0194972
H           4.9867439    -2.0057454     0.2677556
C           4.0181882    -1.3568057    -1.3570264
N           2.9036499    -0.6549402    -1.7662779
C           1.7461303    -0.4579894    -0.8972128
H           1.3176829     0.5389105    -1.0530564
H           2.0330520    -0.5606387     0.1478451
H           0.9684896    -1.2033431    -1.1202749
C           2.5991367    -0.7037281    -3.1921024
H           2.0254585    -1.6042915    -3.4544993
H           3.5282615    -0.7116338    -3.7610906
H           2.0092261     0.1790545    -3.4595875
O           4.6907315    -2.0502679    -2.1063273
C           5.4496829     2.0078953     2.3248581
H           5.7730623     2.8081322     2.9823114
C           4.6249333     2.2499822     1.2250377
H           4.2891084     3.2582914     0.9970840
C           4.2290683     1.1947593     0.4104544
H           3.6124977     1.3637721    -0.4625655
C           4.6931766    -0.0939826     0.7274540
N           5.4941569    -0.3372376     1.7760236
C           5.8551695     0.6935049     2.5460356
H           6.5078030     0.4480080     3.3824643
23
062_C8H11N3O_2-0-19-17 (45,) energy =    -550.9655636
N           4.2052282    -1.2656550     0.1036066
H           4.8394161    -2.0151660     0.3704548
C           3.9732171    -1.3697292    -1.2993614
N           2.8772217    -0.6829463    -1.7728190
C           1.6732405    -0.4844864    -0.9708569
H           1.2673200     0.5218914    -1.1291684
H           1.8989842    -0.6172923     0.0860450
H           0.8997735    -1.2121255    -1.2575722
C           2.6590777    -0.7166667    -3.2142445
H           2.0766973    -1.5995185    -3.5150117
H           3.6210343    -0.7493553    -3.7245698
H           2.1113648     0.1831151    -3.5137614
O           4.7034352    -2.0491013    -2.0048812
C           5.5354746     2.0248372     2.2614269
H           5.9201305     2.8308398     2.8776198
C           4.5771988     2.2510566     1.2718595
H           4.1914766     3.2516046     1.0943331
C           4.1051431     1.1877075     0.5102697
H           3.3757363     1.3471111    -0.2724852
C           4.6377316    -0.0897844     0.7556753
N           5.5587482    -0.3180216     1.7032460
C           5.9873780     0.7182631     2.4308330
H           6.7358357     0.4836560     3.1861093
23
062_C8H11N3O_2-0-19-17 (60,) energy =    -550.9632164
N           4.0673010    -1.2617946     0.1943730
H           4.6875028    -2.0173388     0.4817470
C           3.9329496    -1.3772249    -1.2286108
N           2.8709163    -0.6962992    -1.7759217
C           1.6201257    -0.4775350    -1.0571812
H           1.2515764     0.5424367    -1.2227873
H           1.7692492    -0.6396014     0.0092925
H           0.8496423    -1.1773760    -1.4128998
C           2.7541354    -0.7188633    -3.2288857
H           2.1830678    -1.5923170    -3.5753155
H           3.7492406    -0.7611699    -3.6703110
H           2.2401143     0.1895354    -3.5607014
O           4.7136818    -2.0533836    -1.8800301
C           5.6201215     2.0318581     2.2058285
H           6.0679105     2.8392120     2.7760514
C           4.5271278     2.2468487     1.3642102
H           4.0926744     3.2381575     1.2649557
C           3.9786891     1.1802170     0.6607272
H           3.1304984     1.3284867     0.0058582
C           4.5759830    -0.0837817     0.7998611
N           5.6173599    -0.3023933     1.6141723
C           6.1172253     0.7341509     2.2957332
H           6.9621244     0.5069233     2.9438010
23
062_C8H11N3O_2-0-19-17 (75,) energy =    -550.9603870
N           3.9563108    -1.2702801     0.2770642
H           4.5672474    -2.0266998     0.5842018
C           3.8939724    -1.4148572    -1.1521765
N           2.8980368    -0.6989259    -1.7739496
C           1.6123847    -0.4231061    -1.1433928
H           1.3190297     0.6236862    -1.2934371
H           1.6686286    -0.6359379    -0.0767589
H           0.8307415    -1.0591290    -1.5842260
C           2.8753910    -0.7347342    -3.2311135
H           2.2954754    -1.5903233    -3.6064733
H           3.8947044    -0.8186075    -3.6064441
H           2.4189975     0.1884173    -3.6041376
O           4.6788533    -2.1382415    -1.7447538
C           5.6723187     2.0453835     2.1287678
H           6.1698402     2.8610682     2.6434440
C           4.4408798     2.2225201     1.4958147
H           3.9427756     3.1883189     1.5140704
C           3.8359215     1.1439185     0.8592068
H           2.8695579     1.2545747     0.3855054
C           4.5142412    -0.0844831     0.8418025
N           5.6831688    -0.2696443     1.4678713
C           6.2391988     0.7737081     2.0941664
H           7.1872568     0.5743900     2.5909107
23
062_C8H11N3O_2-0-19-17 (90,) energy =    -550.9594955
N           4.2672432     0.9592073    -1.5271992
H           5.0816707     1.2419529    -2.0659837
C           3.9231021    -0.3173420    -2.0852110
N           2.7415481    -0.8716355    -1.6753327
C           1.5912377    -0.0990840    -1.2160606
H           1.8951262     0.9072636    -0.9425988
H           1.1482436    -0.5744661    -0.3331831
H           0.8280968    -0.0596588    -2.0078438
C           2.4287317    -2.2009615    -2.1833510
H           1.8300748    -2.7359696    -1.4381079
H           3.3536605    -2.7438565    -2.3741915
H           1.8553085    -2.1500357    -3.1204843
O           4.6789263    -0.8447412    -2.8936755
C           5.1117173     1.3629397     2.5410250
H           5.2769462     1.4901052     3.6062583
C           6.1631507     1.0819162     1.6670397
H           7.1792537     0.9720229     2.0363014
C           5.8883940     0.9225455     0.3129341
H           6.6736760     0.6746513    -0.3951301
C           4.5646746     1.0804058    -0.1302513
N           3.5546359     1.3434943     0.7010935
C           3.8302628     1.4699320     2.0052062
H           2.9779430     1.6780159     2.6500020
23
062_C8H11N3O_2-0-19-17 (105,) energy =    -550.9615391
N           4.3188192     0.8580318    -1.4725872
H           5.1520542     1.0879393    -2.0075331
C           3.9209660    -0.4228526    -1.9975074
N           2.6683615    -0.8512122    -1.6690882
C           1.5666232     0.0280458    -1.2939208
H           1.9295659     1.0403236    -1.1422051
H           1.1033171    -0.3118346    -0.3615202
H           0.8070967     0.0196308    -2.0894734
C           2.2813503    -2.1855730    -2.1058172
H           1.6441267    -2.6446133    -1.3416285
H           3.1752047    -2.7898541    -2.2548331
H           1.7206396    -2.1500109    -3.0510524
O           4.6970815    -1.0460630    -2.7120428
C           5.1213727     1.3220752     2.5906736
H           5.2741642     1.4481789     3.6577191
C           6.1930464     1.3001114     1.6952542
H           7.2157684     1.3970075     2.0496818
C           5.9380518     1.1250407     0.3406524
H           6.7496026     1.0724548    -0.3794220
C           4.6019618     1.0128195    -0.0852271
N           3.5736193     1.0205345     0.7661738
C           3.8394758     1.1646144     2.0705041
H           2.9733696     1.1600263     2.7305398
23
062_C8H11N3O_2-0-19-17 (120,) energy =    -550.9638590
N           4.3999400     0.7455117    -1.4524322
H           5.2455342     0.9365858    -1.9821310
C           3.9280681    -0.5118682    -1.9720323
N           2.6363517    -0.8386211    -1.6916974
C           1.6001377     0.1164145    -1.3203311
H           2.0268916     1.1108639    -1.2200493
H           1.1409663    -0.1582528    -0.3654642
H           0.8250433     0.1282176    -2.1001558
C           2.1653605    -2.1498950    -2.1140307
H           1.4800951    -2.5486339    -1.3576099
H           3.0176272    -2.8181307    -2.2303508
H           1.6307933    -2.0928502    -3.0730843
O           4.6823238    -1.1978510    -2.6519097
C           5.1172611     1.3243810     2.6049171
H           5.2507714     1.4695262     3.6719795
C           6.1706800     1.5013764     1.7035943
H           7.1608120     1.7806840     2.0538013
C           5.9463849     1.2917221     0.3499105
H           6.7512949     1.3962301    -0.3722861
C           4.6497620     0.9386722    -0.0719761
N           3.6408344     0.7555196     0.7838624
C           3.8835153     0.9411080     2.0878914
H           3.0353376     0.7762881     2.7507415
23
062_C8H11N3O_2-0-19-17 (135,) energy =    -550.9657703
N           4.5053667     0.5831121    -1.4569663
H           5.3668227     0.7290418    -1.9738671
C           3.9513650    -0.6376899    -1.9749824
N           2.6293177    -0.8566434    -1.7397470
C           1.6715368     0.1669281    -1.3474160
H           2.1626556     1.1357153    -1.2884642
H           1.2318172    -0.0585113    -0.3709437
H           0.8722869     0.2154805    -2.1002218
C           2.0646656    -2.1319595    -2.1553181
H           1.3803800    -2.4978708    -1.3810567
H           2.8712271    -2.8482898    -2.3049438
H           1.5039712    -2.0304401    -3.0953677
O           4.6703856    -1.3850587    -2.6286067
C           5.0876123     1.3306646     2.5883847
H           5.1909037     1.5107957     3.6533649
C           6.1049987     1.6575482     1.6861136
H           7.0354024     2.0978779     2.0346995
C           5.9248465     1.3976263     0.3357929
H           6.7037003     1.6253363    -0.3869050
C           4.7044291     0.8298350    -0.0836353
N           3.7304903     0.5059528     0.7714408
C           3.9324296     0.7527781     2.0729082
H           3.1155660     0.4689853     2.7348495
23
062_C8H11N3O_2-0-19-17 (150,) energy =    -550.9669658
N           4.6261067     0.4435163    -1.4372990
H           5.5012893     0.5416436    -1.9410663
C           3.9904227    -0.7340422    -1.9520633
N           2.6478949    -0.8420656    -1.7578783
C           1.7751287     0.2345472    -1.3191553
H           2.3220070     1.1755996    -1.2987444
H           1.3756216     0.0406548    -0.3185122
H           0.9416642     0.3267853    -2.0286311
C           1.9920478    -2.0810672    -2.1465851
H           1.3648848    -2.4442740    -1.3230466
H           2.7518302    -2.8228635    -2.3875894
H           1.3529313    -1.9262020    -3.0268463
O           4.6637162    -1.5397130    -2.5856319
C           5.0798358     1.3606437     2.5850877
H           5.1558755     1.5765067     3.6456520
C           6.0365266     1.8174092     1.6717348
H           6.8880753     2.4034804     2.0071180
C           5.8949336     1.5097077     0.3276976
H           6.6224079     1.8479337    -0.4052194
C           4.7784301     0.7464185    -0.0736547
N           3.8618737     0.3015057     0.7905416
C           4.0220337     0.6097354     2.0853413
H           3.2540160     0.2254180     2.7549395
23
062_C8H11N3O_2-0-19-17 (165,) energy =    -550.9672495
N           4.7424853     0.2922895    -1.4180116
H           5.6280770     0.3533128    -1.9074953
C           4.0293326    -0.8255200    -1.9477396
N           2.6795746    -0.8420613    -1.7627972
C           1.8840580     0.2774186    -1.2885520
H           2.4724208     1.1940785    -1.3137826
H           1.5307057     0.1144796    -0.2647122
H           1.0188034     0.4019388    -1.9524652
C           1.9432405    -2.0315711    -2.1612144
H           1.3082697    -2.3729265    -1.3340161
H           2.6533705    -2.8127314    -2.4277054
H           1.3011949    -1.8219840    -3.0278157
O           4.6449581    -1.6659695    -2.5953393
C           5.0448028     1.3834931     2.5714006
H           5.0887212     1.6368846     3.6254643
C           5.9316310     1.9420383     1.6438864
H           6.6908154     2.6522164     1.9607461
C           5.8320160     1.5854262     0.3082993
H           6.4982801     2.0087145    -0.4382949
C           4.8391223     0.6560087    -0.0669742
N           3.9863075     0.1175045     0.8094785
C           4.0964485     0.4861193     2.0939425
H           3.3824814     0.0244028     2.7743053
23
062_C8H11N3O_2-0-19-17 (180,) energy =    -550.9666365
N           4.8378241     0.1428224    -1.3936563
H           5.7349064     0.1642345    -1.8638706
C           4.0529371    -0.9006857    -1.9529191
N           2.7029978    -0.8385264    -1.7597041
C           1.9776633     0.3121900    -1.2511983
H           2.6054608     1.2024905    -1.2884097
H           1.6454323     0.1582137    -0.2181922
H           1.1000431     0.4851121    -1.8870400
C           1.8959472    -1.9763916    -2.1709589
H           1.2551332    -2.3009964    -1.3412212
H           2.5579716    -2.7891278    -2.4652418
H           1.2537609    -1.7136295    -3.0229450
O           4.6067594    -1.7563625    -2.6365230
C           4.9904225     1.3994843     2.5542265
H           5.0030662     1.6892947     3.5997698
C           5.7987233     2.0367952     1.6067199
H           6.4589790     2.8496091     1.8974504
C           5.7393200     1.6319188     0.2816442
H           6.3355555     2.1186389    -0.4848774
C           4.8802775     0.5667461    -0.0569830
N           4.0980633    -0.0444046     0.8382359
C           4.1570099     0.3788054     2.1088764
H           3.5020961    -0.1421195     2.8056690
