24
004_C12H11N_0-6-7-19 (-165,) energy =    -518.6516738
C           0.2502469    -0.2614390     1.8596399
H           0.6411322    -0.5366475     2.8371711
C          -1.1124614    -0.0346846     1.6929237
H          -1.7772304    -0.1454266     2.5458224
C          -1.6233799     0.3412260     0.4484512
H          -2.6856495     0.5273354     0.3211320
C           1.1395681    -0.1286524     0.7769990
N           2.4931609    -0.4088642     0.9976923
H           2.6766393    -1.0263743     1.7759126
C          -0.7458824     0.4686380    -0.6290976
H          -1.1259324     0.7435783    -1.6098495
C           5.9495991     0.4874913    -1.2494189
H           6.8479460     0.7123119    -1.8166656
C           4.8405824     1.3329737    -1.3115457
H           4.8768114     2.2322563    -1.9212561
C           0.6197178     0.2303506    -0.4790398
H           1.2764267     0.2975192    -1.3385835
C           3.6839705     1.0567842    -0.5841510
H           2.8495916     1.7485253    -0.6109384
C           3.6101798    -0.0992459     0.2133224
C           4.7317835    -0.9458132     0.2763727
H           4.6862306    -1.8441208     0.8887591
C           5.8875605    -0.6492425    -0.4406213
H           6.7408710    -1.3192342    -0.3735978
24
004_C12H11N_0-6-7-19 (-150,) energy =    -518.6516692
C           0.2818398    -0.2477905     1.8377789
H           0.6969388    -0.5115908     2.8083772
C          -1.0675980     0.0736238     1.7209039
H          -1.6984530     0.0501211     2.6057947
C          -1.6058137     0.4383364     0.4849016
H          -2.6562252     0.6995115     0.3968015
C           1.1243679    -0.2298308     0.7115845
N           2.4608617    -0.6169135     0.8657057
H           2.6513609    -1.1824246     1.6808354
C          -0.7737737     0.4564310    -0.6358746
H          -1.1784524     0.7216307    -1.6093648
C           5.9661814     0.5809837    -1.1562967
H           6.8766043     0.8789940    -1.6678033
C           4.8069389     1.3505028    -1.2628164
H           4.8139124     2.2640426    -1.8521191
C           0.5746695     0.1178789    -0.5350384
H           1.1963592     0.0969933    -1.4232318
C           3.6328276     0.9796023    -0.6084150
H           2.7547112     1.6116145    -0.6751033
C           3.5957495    -0.1956495     0.1619571
C           4.7673920    -0.9677942     0.2686140
H           4.7490748    -1.8819420     0.8584964
C           5.9367999    -0.5779026    -0.3769458
H           6.8285980    -1.1912736    -0.2765285
24
004_C12H11N_0-6-7-19 (-135,) energy =    -518.6512416
C           0.3386660    -0.2065394     1.8121211
H           0.7898847    -0.4477847     2.7722551
C          -0.9895939     0.2101442     1.7495292
H          -1.5692567     0.2826678     2.6661438
C          -1.5676837     0.5503201     0.5253436
H          -2.5995400     0.8859990     0.4789431
C           1.1092583    -0.3160985     0.6429254
N           2.4253162    -0.8009149     0.7257449
H           2.6165801    -1.3479927     1.5543210
C          -0.8032010     0.4488660    -0.6392229
H          -1.2433540     0.6961654    -1.6018683
C           5.9587581     0.6538009    -1.0731668
H           6.8750764     1.0148629    -1.5306705
C           4.7665154     1.3643240    -1.2148783
H           4.7515981     2.2940826    -1.7782072
C           0.5184167     0.0099925    -0.5900004
H           1.0909642    -0.1039303    -1.5045952
C           3.5834145     0.9121678    -0.6307008
H           2.6753560     1.4958528    -0.7296795
C           3.5734766    -0.2842229     0.1056075
C           4.7779291    -0.9981988     0.2469425
H           4.7800216    -1.9295633     0.8096427
C           5.9537660    -0.5294969    -0.3303099
H           6.8710986    -1.0988421    -0.2036068
24
004_C12H11N_0-6-7-19 (-120,) energy =    -518.6503290
C           0.4194323    -0.1480730     1.7707532
H           0.9198992    -0.3501937     2.7151704
C          -0.8830851     0.3501972     1.7606814
H          -1.3956984     0.5257473     2.7028761
C          -1.5174881     0.6421766     0.5523331
H          -2.5278723     1.0408887     0.5452208
C           1.0962352    -0.3935906     0.5669026
N           2.3933755    -0.9533945     0.5816668
H           2.5804581    -1.5163346     1.4018982
C          -0.8411791     0.4131415    -0.6485296
H          -1.3285634     0.6261258    -1.5963823
C           5.9440373     0.7303590    -0.9748426
H           6.8636031     1.1484087    -1.3735723
C           4.7271548     1.3874441    -1.1575548
H           4.6950731     2.3314746    -1.6959363
C           0.4499994    -0.1112873    -0.6470507
H           0.9603266    -0.3228471    -1.5815745
C           3.5394667     0.8617702    -0.6483616
H           2.6081674     1.4000695    -0.7839409
C           3.5519339    -0.3539207     0.0540129
C           4.7804707    -1.0152315     0.2359648
H           4.8004016    -1.9620470     0.7720686
C           5.9592013    -0.4749540    -0.2682657
H           6.8956388    -1.0043125    -0.1111753
24
004_C12H11N_0-6-7-19 (-105,) energy =    -518.6490835
C           0.5223257    -0.0934371     1.7117478
H           1.0875281    -0.2499192     2.6276059
C          -0.7529898     0.4708124     1.7597561
H          -1.1828468     0.7443517     2.7197681
C          -1.4646110     0.7019103     0.5815293
H          -2.4533531     1.1504912     0.6189246
C           1.0858503    -0.4659456     0.4840376
N           2.3665707    -1.0810394     0.4261696
H           2.5419833    -1.6972089     1.2112420
C          -0.8974422     0.3506283    -0.6458999
H          -1.4470960     0.5202460    -1.5679946
C           5.9298404     0.8051462    -0.8493292
H           6.8514505     1.2752293    -1.1795817
C           4.6981569     1.4201887    -1.0744337
H           4.6555094     2.3821159    -1.5794339
C           0.3647903    -0.2395040    -0.6966155
H           0.7984850    -0.5435665    -1.6445566
C           3.5079240     0.8272978    -0.6524172
H           2.5622044     1.3293785    -0.8244783
C           3.5334898    -0.4127159     0.0052117
C           4.7765580    -1.0317925     0.2298579
H           4.8076873    -1.9965972     0.7326243
C           5.9569313    -0.4264261    -0.1899478
H           6.9048690    -0.9241118    -0.0011993
24
004_C12H11N_0-6-7-19 (-90,) energy =    -518.6479927
C           0.6085202     0.3730578     1.5677502
H           1.2526356     0.5650115     2.4206568
C          -0.6772037     0.9107809     1.5033196
H          -1.0379960     1.5408827     2.3119197
C          -1.5065752     0.6216687     0.4174550
H          -2.5121721     1.0309240     0.3748149
C           1.0872543    -0.4356192     0.5299967
N           2.3900150    -1.0154974     0.6354234
H           2.3954663    -2.0033640     0.4073259
C          -1.0403149    -0.2008990    -0.6097498
H          -1.6805011    -0.4329926    -1.4567726
C           5.9177464     0.8896606    -0.7076191
H           6.8320416     1.3710225    -1.0420009
C           4.7540091     1.6331292    -0.5086404
H           4.7567444     2.7047937    -0.6922444
C           0.2537826    -0.7207214    -0.5589788
H           0.6257966    -1.3482359    -1.3653001
C           3.5736230     1.0241507    -0.0826565
H           2.6761599     1.6171673     0.0581552
C           3.5417543    -0.3585575     0.1593095
C           4.7161865    -1.1061904    -0.0409031
H           4.7052026    -2.1779884     0.1485879
C           5.8860860    -0.4868677    -0.4704983
H           6.7799222    -1.0872605    -0.6208235
24
004_C12H11N_0-6-7-19 (-75,) energy =    -518.6493274
C           0.6930141     0.4558499     1.4208351
H           1.4141833     0.7256122     2.1864926
C          -0.5945561     0.9897483     1.4350805
H          -0.8726756     1.6960212     2.2129213
C          -1.5329905     0.5995109     0.4763277
H          -2.5398320     1.0068624     0.4984528
C           1.0707940    -0.4507136     0.4194767
N           2.3637499    -1.0390332     0.4432314
H           2.3636054    -1.9968743     0.1128031
C          -1.1697296    -0.3243416    -0.5045117
H          -1.8921952    -0.6389435    -1.2530343
C           5.9725088     0.9183572    -0.5693890
H           6.9074137     1.4102399    -0.8211764
C           4.8022618     1.6593500    -0.4037500
H           4.8195754     2.7387462    -0.5330853
C           0.1264346    -0.8398163    -0.5399286
H           0.4139039    -1.5449150    -1.3165774
C           3.5949209     1.0382699    -0.0830542
H           2.6932700     1.6310257     0.0257269
C           3.5427843    -0.3542471     0.0861057
C           4.7242892    -1.0993433    -0.0798550
H           4.6969203    -2.1788063     0.0562434
C           5.9205191    -0.4684786    -0.4070420
H           6.8191773    -1.0671282    -0.5331908
24
004_C12H11N_0-6-7-19 (-60,) energy =    -518.6505836
C           0.7506710     0.5212975     1.2796720
H           1.5319425     0.8560378     1.9548380
C          -0.5406863     1.0336453     1.3850403
H          -0.7535704     1.7878246     2.1382398
C          -1.5626572     0.5663900     0.5547151
H          -2.5701537     0.9612036     0.6488987
C           1.0493395    -0.4490608     0.3087979
N           2.3344336    -1.0269840     0.2321084
H           2.3336088    -1.9608290    -0.1583000
C          -1.2764472    -0.4192829    -0.3907583
H          -2.0613924    -0.7965087    -1.0410502
C           6.0219027     0.9283958    -0.4322084
H           6.9773389     1.4173013    -0.5979110
C           4.8486682     1.6765839    -0.3340297
H           4.8846962     2.7587031    -0.4328646
C           0.0195579    -0.9174451    -0.5208806
H           0.2415376    -1.6713130    -1.2731625
C           3.6151078     1.0599172    -0.1235250
H           2.7127199     1.6588356    -0.0736267
C           3.5390167    -0.3362262     0.0042626
C           4.7239550    -1.0884748    -0.0941141
H           4.6772477    -2.1705251     0.0114841
C           5.9462762    -0.4618954    -0.3151288
H           6.8468072    -1.0661689    -0.3905114
24
004_C12H11N_0-6-7-19 (-45,) energy =    -518.6513932
C           0.7886317     0.5746281     1.1547129
H           1.6106353     0.9661550     1.7445730
C          -0.5057721     1.0507845     1.3534481
H          -0.6743808     1.8334884     2.0886868
C          -1.5828087     0.5186169     0.6410990
H          -2.5898824     0.8899938     0.8065697
C           1.0326535    -0.4350267     0.2071629
N           2.3113128    -0.9818269     0.0188227
H           2.3159587    -1.9104788    -0.3806340
C          -1.3477486    -0.5026101    -0.2811638
H          -2.1734054    -0.9328982    -0.8420642
C           6.0648261     0.9241946    -0.3127819
H           7.0371776     1.4002759    -0.3977336
C           4.8993172     1.6904605    -0.2813349
H           4.9592292     2.7735738    -0.3536533
C          -0.0544839    -0.9702719    -0.5040031
H           0.1231650    -1.7526373    -1.2389826
C           3.6445515     1.0909006    -0.1746556
H           2.7506620     1.7040426    -0.1835706
C           3.5370773    -0.3069222    -0.0825815
C           4.7146066    -1.0767454    -0.1154697
H           4.6426505    -2.1597461    -0.0384156
C           5.9592673    -0.4668097    -0.2357725
H           6.8532467    -1.0847195    -0.2613737
24
004_C12H11N_0-6-7-19 (-30,) energy =    -518.6517005
C           0.8138619     0.6216375     1.0466567
H           1.6620813     1.0683077     1.5531638
C          -0.4790313     1.0515286     1.3412982
H          -0.6154246     1.8529737     2.0630139
C          -1.5902383     0.4559040     0.7420559
H          -2.5940436     0.7949183     0.9803347
C           1.0191344    -0.4134153     0.1171490
N           2.2888591    -0.9156441    -0.1895727
H           2.3008825    -1.8593057    -0.5497383
C          -1.3905663    -0.5870948    -0.1649487
H          -2.2415824    -1.0681656    -0.6402448
C           6.0929239     0.9100987    -0.2213426
H           7.0782551     1.3664668    -0.2337451
C           4.9435426     1.7008687    -0.2554858
H           5.0303091     2.7832802    -0.3077129
C          -0.1037465    -1.0132331    -0.4814023
H           0.0429748    -1.8136785    -1.2037303
C           3.6730987     1.1264900    -0.2431009
H           2.7942672     1.7576013    -0.3093227
C           3.5310438    -0.2706851    -0.1776477
C           4.6925526    -1.0645214    -0.1462388
H           4.5949025    -2.1468704    -0.0917181
C           5.9546517    -0.4791203    -0.1753918
H           6.8357795    -1.1152597    -0.1520360
24
004_C12H11N_0-6-7-19 (-15,) energy =    -518.6516444
C           0.8289287     0.6717501     0.9397801
H           1.6904990     1.1662050     1.3729930
C          -0.4559151     1.0539693     1.3243795
H          -0.5703619     1.8651896     2.0390364
C          -1.5834397     0.4037671     0.8216524
H          -2.5797397     0.7081412     1.1282642
C           1.0073337    -0.3761434     0.0199334
N           2.2641325    -0.8287800    -0.3998162
H           2.2856948    -1.7926817    -0.7019123
C          -1.4082774    -0.6487050    -0.0800914
H          -2.2714282    -1.1728338    -0.4824378
C           6.1065842     0.8880336    -0.1019586
H           7.1012675     1.3185476    -0.0340028
C           4.9843129     1.7094863    -0.2226964
H           5.1036715     2.7892468    -0.2627605
C          -0.1326068    -1.0310919    -0.4827385
H          -0.0073474    -1.8404288    -1.1992302
C           3.7033550     1.1677450    -0.3156875
H           2.8481393     1.8196611    -0.4538507
C           3.5206681    -0.2258142    -0.2671039
C           4.6546457    -1.0495793    -0.1499848
H           4.5258261    -2.1293233    -0.1099326
C           5.9303606    -0.4969760    -0.0766229
H           6.7904593    -1.1556374     0.0123021
24
004_C12H11N_0-6-7-19 (0,) energy =    -518.6511716
C           0.7647019     0.9416472     0.2378323
H           1.5720949     1.6590261     0.1538494
C          -0.5496578     1.3927619     0.3617174
H          -0.7345177     2.4635783     0.3956344
C          -1.6178489     0.4986701     0.4303101
H          -2.6370777     0.8603937     0.5280544
C           1.0347907    -0.4360296     0.1835162
N           2.3246769    -0.9761054     0.0685568
H           2.3392304    -1.9003784    -0.3417904
C          -1.3524934    -0.8717254     0.3681093
H          -2.1680022    -1.5889073     0.4157441
C           6.0905751     0.9187772    -0.1478959
H           7.0663686     1.3925008    -0.2016737
C           5.1370867     1.3631683     0.7702219
H           5.3738338     2.1801337     1.4470387
C          -0.0464777    -1.3353794     0.2518525
H           0.1497434    -2.4053672     0.2189127
C           3.8847851     0.7567945     0.8522911
H           3.1733995     1.0789339     1.6047350
C           3.5536053    -0.3010006    -0.0125173
C           4.5187847    -0.7483465    -0.9307034
H           4.2739328    -1.5664947    -1.6049875
C           5.7748691    -0.1491977    -0.9897871
H           6.5051449    -0.5134185    -1.7077321
24
004_C12H11N_0-6-7-19 (15,) energy =    -518.6516445
C           0.7321140     0.9637684     0.1259379
H           1.5190453     1.6869376    -0.0535824
C          -0.5730639     1.4010753     0.3499253
H          -0.7727625     2.4696389     0.3647295
C          -1.6165831     0.4938964     0.5358765
H          -2.6296899     0.8446526     0.7085908
C           1.0200597    -0.4118201     0.0979246
N           2.2998807    -0.9276601    -0.1388479
H           2.3140430    -1.8573099    -0.5342659
C          -1.3359721    -0.8740243     0.4921391
H          -2.1332826    -1.5999247     0.6299920
C           6.1125245     0.8765514    -0.0453184
H           7.1003537     1.3271868    -0.0233312
C           5.1026120     1.3390235     0.8001737
H           5.3060781     2.1481102     1.4970970
C          -0.0361882    -1.3237517     0.2832484
H           0.1751613    -2.3911059     0.2685132
C           3.8324455     0.7649496     0.7839959
H           3.0742862     1.1072856     1.4793259
C           3.5425130    -0.2832684    -0.1074326
C           4.5645299    -0.7489459    -0.9541646
H           4.3516469    -1.5585264    -1.6493474
C           5.8343559    -0.1796291    -0.9155054
H           6.6072221    -0.5585482    -1.5792881
24
004_C12H11N_0-6-7-19 (30,) energy =    -518.6517005
C           0.6811130     0.9959685     0.0297455
H           1.4346379     1.7303505    -0.2318271
C          -0.6086271     1.4090070     0.3600221
H          -0.8329700     2.4726098     0.3748995
C          -1.6104121     0.4806257     0.6483022
H          -2.6133458     0.8116859     0.9010124
C           0.9987623    -0.3736464     0.0026383
N           2.2629657    -0.8513327    -0.3608511
H           2.2790011    -1.8002629    -0.7067419
C          -1.3036224    -0.8810006     0.6007410
H          -2.0693283    -1.6214239     0.8176010
C           6.1153723     0.8213655     0.0455888
H           7.1128116     1.2395139     0.1434189
C           5.0621304     1.3088791     0.8204648
H           5.2394660     2.1055053     1.5386723
C          -0.0148881    -1.3057140     0.2901253
H           0.2197176    -2.3681245     0.2741212
C           3.7777323     0.7782985     0.7062453
H           2.9826353     1.1451662     1.3452088
C           3.5199643    -0.2536287    -0.2130354
C           4.5854532    -0.7442314    -0.9905116
H           4.3968608    -1.5403018    -1.7079376
C           5.8660045    -0.2168293    -0.8551257
H           6.6718523    -0.6150402    -1.4664001
24
004_C12H11N_0-6-7-19 (45,) energy =    -518.6513932
C           0.6302654     1.0299752    -0.0783603
H           1.3397932     1.7732446    -0.4262657
C          -0.6375441     1.4178916     0.3504513
H          -0.8948467     2.4740264     0.3530771
C          -1.5811482     0.4686339     0.7494035
H          -2.5696767     0.7782457     1.0756659
C           0.9878534    -0.3297445    -0.0878427
N           2.2328076    -0.7657268    -0.5668319
H           2.2499280    -1.7280345    -0.8761234
C          -1.2384056    -0.8841941     0.7157191
H          -1.9603368    -1.6384889     1.0179153
C           6.1067373     0.7589127     0.1399985
H           7.1087455     1.1411237     0.3109551
C           5.0211319     1.2689430     0.8526482
H           5.1760684     2.0480374     1.5949204
C           0.0339042    -1.2813652     0.3103013
H           0.2999980    -2.3363666     0.3058178
C           3.7298138     0.7850602     0.6437689
H           2.9060189     1.1741695     1.2311421
C           3.5004398    -0.2235928    -0.3069980
C           4.5978274    -0.7363252    -1.0233493
H           4.4302035    -1.5132310    -1.7665402
C           5.8828717    -0.2541694    -0.7957038
H           6.7136375    -0.6691888    -1.3607297
24
004_C12H11N_0-6-7-19 (60,) energy =    -518.6505837
C           0.5667571     1.0651653    -0.2030592
H           1.2154452     1.8164578    -0.6424332
C          -0.6769910     1.4214775     0.3139909
H          -0.9833128     2.4640976     0.2910957
C          -1.5385492     0.4505286     0.8308741
H          -2.5117266     0.7325179     1.2222895
C           0.9854213    -0.2755220    -0.1773437
N           2.2122996    -0.6635759    -0.7565896
H           2.2221856    -1.6248432    -1.0733588
C          -1.1383859    -0.8863552     0.8305382
H          -1.7989216    -1.6541342     1.2249058
C           6.0925944     0.6799275     0.2436202
H           7.0953430     1.0187384     0.4866138
C           4.9831672     1.2199354     0.8943646
H           5.1191083     1.9806361     1.6591546
C           0.1160309    -1.2475345     0.3399147
H           0.4310872    -2.2886088     0.3604752
C           3.6902941     0.7913705     0.5925948
H           2.8440086     1.2079938     1.1271232
C           3.4859487    -0.1922165    -0.3882945
C           4.6065476    -0.7345280    -1.0438809
H           4.4587391    -1.4916560    -1.8113929
C           5.8913582    -0.3061019    -0.7257050
H           6.7406835    -0.7433946    -1.2445580
24
004_C12H11N_0-6-7-19 (75,) energy =    -518.6493275
C           0.4730204     1.1045426    -0.3312331
H           1.0387391     1.8612682    -0.8664119
C          -0.7456591     1.4174846     0.2687547
H          -1.1243770     2.4346564     0.2127474
C          -1.4924700     0.4273400     0.9122296
H          -2.4484731     0.6714204     1.3668080
C           0.9799814    -0.2013644    -0.2614563
N           2.1919741    -0.5304258    -0.9257212
H           2.1879557    -1.4704485    -1.3038469
C          -1.0051623    -0.8795074     0.9587079
H          -1.5790973    -1.6591886     1.4525808
C           6.0693249     0.5812921     0.3434141
H           7.0704886     0.8645762     0.6545716
C           4.9494033     1.1582430     0.9424872
H           5.0745685     1.8940571     1.7330764
C           0.2276542    -1.1915693     0.3844160
H           0.6153197    -2.2063546     0.4383828
C           3.6584803     0.8002462     0.5530778
H           2.8011480     1.2491150     1.0426297
C           3.4675731    -0.1498760    -0.4624245
C           4.5982306    -0.7292645    -1.0662097
H           4.4617306    -1.4615446    -1.8597094
C           5.8804002    -0.3689350    -0.6634336
H           6.7379215    -0.8338059    -1.1434659
24
004_C12H11N_0-6-7-19 (90,) energy =    -518.6479927
C           0.3485849     1.1303468    -0.4769630
H           0.8152074     1.8782691    -1.1110289
C          -0.8515792     1.3963627     0.1826963
H          -1.3229477     2.3692085     0.0712523
C          -1.4584166     0.4097174     0.9630213
H          -2.3995541     0.6142117     1.4659845
C           0.9686701    -0.1171017    -0.3370521
N           2.1738389    -0.3871931    -1.0575103
H           2.1517165    -1.2839319    -1.5300915
C          -0.8538231    -0.8423770     1.0885941
H          -1.3215495    -1.6161863     1.6915957
C           6.0366139     0.4642818     0.4365436
H           7.0339307     0.6844740     0.8057791
C           4.9167405     1.0679602     1.0094493
H           5.0381951     1.7636854     1.8361314
C           0.3587879    -1.1030300     0.4488450
H           0.8406216    -2.0716269     0.5582227
C           3.6313623     0.7895098     0.5449779
H           2.7718802     1.2618616     1.0087917
C           3.4455053    -0.1070779    -0.5195451
C           4.5755532    -0.7139539    -1.0963425
H           4.4450320    -1.4067875    -1.9256656
C           5.8522966    -0.4305923    -0.6204104
H           6.7096667    -0.9149350    -1.0811767
24
004_C12H11N_0-6-7-19 (105,) energy =    -518.6490835
C           0.1920306     0.8662867    -0.8532555
H           0.5400177     1.3873632    -1.7421433
C          -1.0182893     1.2227959    -0.2573237
H          -1.6168184     2.0186264    -0.6928028
C          -1.4485842     0.5762221     0.9023400
H          -2.3861326     0.8611776     1.3714197
C           0.9691716    -0.1675293    -0.3139471
N           2.1829232    -0.5684893    -0.9368603
H           2.1429711    -0.5110044    -1.9477386
C          -0.6663308    -0.4410776     1.4544838
H          -0.9967982    -0.9550713     2.3532344
C           6.0673754     0.3143895     0.4819219
H           7.0707817     0.5290598     0.8375947
C           4.9604396     0.5357004     1.3014986
H           5.0977635     0.9324226     2.3044443
C           0.5298181    -0.8199498     0.8464256
H           1.1272566    -1.6307275     1.2524334
C           3.6665866     0.2663021     0.8546679
H           2.8187257     0.4592953     1.5027126
C           3.4595806    -0.2431469    -0.4369778
C           4.5773940    -0.4669142    -1.2612125
H           4.4291209    -0.8681947    -2.2619996
C           5.8621137    -0.1874056    -0.8058505
H           6.7089501    -0.3660861    -1.4637607
24
004_C12H11N_0-6-7-19 (120,) energy =    -518.6503290
C           0.0751827     0.8550464    -0.9105818
H           0.3505940     1.3549446    -1.8365917
C          -1.1545774     1.1217903    -0.3093636
H          -1.8375763     1.8253218    -0.7782749
C          -1.4986313     0.5079126     0.8958774
H          -2.4517947     0.7245211     1.3696472
C           0.9675171    -0.0581754    -0.3297566
N           2.1863522    -0.3688652    -0.9732546
H           2.1545691    -0.2474878    -1.9777146
C          -0.6061434    -0.3909416     1.4853331
H          -0.8672264    -0.8838213     2.4181981
C           6.1017013     0.1774617     0.5222261
H           7.1134213     0.3081685     0.8946368
C           5.0035932     0.4592276     1.3350694
H           5.1568003     0.8215499     2.3486413
C           0.6123518    -0.6839486     0.8757584
H           1.2887772    -1.4099189     1.3161470
C           3.6991756     0.2974531     0.8675908
H           2.8605871     0.5426502     1.5095524
C           3.4718619    -0.1655477    -0.4382985
C           4.5811713    -0.4500815    -1.2557431
H           4.4163752    -0.8169626    -2.2669323
C           5.8769383    -0.2747429    -0.7805609
H           6.7167265    -0.4988116    -1.4335256
24
004_C12H11N_0-6-7-19 (135,) energy =    -518.6512417
C          -0.0168686     0.8309759    -0.9622015
H           0.2043558     1.3071178    -1.9150987
C          -1.2669063     1.0001113    -0.3700677
H          -2.0177155     1.6036334    -0.8735420
C          -1.5490679     0.4174388     0.8666384
H          -2.5196406     0.5592382     1.3329565
C           0.9700969     0.0507214    -0.3377358
N           2.1988819    -0.1578176    -0.9861256
H           2.1705192    -0.0186948    -1.9872538
C          -0.5683405    -0.3540835     1.4941777
H          -0.7777686    -0.8263512     2.4505626
C           6.1306680     0.0567152     0.5412582
H           7.1471946     0.1059166     0.9201662
C           5.0521440     0.4074786     1.3537294
H           5.2263432     0.7442207     2.3726852
C           0.6763550    -0.5492690     0.8988928
H           1.4167418    -1.1833412     1.3754024
C           3.7421202     0.3502894     0.8783022
H           2.9220409     0.6554515     1.5181490
C           3.4872656    -0.0779236    -0.4351931
C           4.5774873    -0.4305843    -1.2521870
H           4.3908546    -0.7699812    -2.2690723
C           5.8802260    -0.3569519    -0.7695465
H           6.7046217    -0.6325109    -1.4223419
24
004_C12H11N_0-6-7-19 (150,) energy =    -518.6516691
C          -0.0806979     0.8120473    -0.9958097
H           0.1013479     1.2752187    -1.9634332
C          -1.3473878     0.8720994    -0.4214676
H          -2.1488411     1.3783796    -0.9533532
C          -1.5863975     0.3032882     0.8314258
H          -2.5720461     0.3600524     1.2837844
C           0.9771613     0.1618512    -0.3350113
N           2.2184396     0.0751910    -0.9765100
H           2.1907614     0.1913245    -1.9796423
C          -0.5398152    -0.3440825     1.4904180
H          -0.7112634    -0.8071644     2.4588844
C           6.1497090    -0.0516593     0.5533060
H           7.1669705    -0.0857347     0.9319168
C           5.1005111     0.3693990     1.3713719
H           5.3002442     0.6788877     2.3942106
C           0.7279828    -0.4276694     0.9169888
H           1.5178704    -0.9703933     1.4242906
C           3.7908405     0.4199995     0.8953840
H           2.9969642     0.7851992     1.5367650
C           3.5040331     0.0275375    -0.4236300
C           4.5650256    -0.3944665    -1.2461537
H           4.3544307    -0.7050241    -2.2675146
C           5.8696656    -0.4252806    -0.7632160
H           6.6712902    -0.7534049    -1.4199743
24
004_C12H11N_0-6-7-19 (165,) energy =    -518.6516738
C          -0.1170454     0.8134475    -1.0140206
H           0.0389715     1.2706390    -1.9890772
C          -1.3935363     0.7685034    -0.4619783
H          -2.2280916     1.1853658    -1.0199671
C          -1.6033240     0.2047474     0.7986737
H          -2.5980897     0.1783343     1.2334403
C           0.9861245     0.2820506    -0.3202820
N           2.2383486     0.3208636    -0.9447002
H           2.2075674     0.3730206    -1.9531349
C          -0.5131044    -0.3283117     1.4875521
H          -0.6583763    -0.7868546     2.4625008
C           6.1457207    -0.1841385     0.5640832
H           7.1571178    -0.3105890     0.9388098
C           5.1421836     0.3273046     1.3886719
H           5.3732960     0.6152402     2.4111475
C           0.7688547    -0.3027408     0.9397023
H           1.5936025    -0.7575558     1.4759194
C           3.8416327     0.4982780     0.9170600
H           3.0867831     0.9381321     1.5590407
C           3.5148152     0.1349426    -0.4016638
C           4.5303630    -0.3757236    -1.2302471
H           4.2897376    -0.6619430    -2.2521272
C           5.8294926    -0.5246030    -0.7528367
H           6.5962289    -0.9203641    -1.4139006
24
004_C12H11N_0-6-7-19 (180,) energy =    -518.6512092
C          -0.1262188     0.7971094    -1.0350055
H           0.0128435     1.2393572    -2.0196858
C          -1.4077622     0.6459918    -0.5161306
H          -2.2611451     0.9653632    -1.1089381
C          -1.6007932     0.0936253     0.7525621
H          -2.6010586    -0.0188033     1.1600362
C           1.0031338     0.3962036    -0.2959443
N           2.2627185     0.5617214    -0.8901808
H           2.2313031     0.6016245    -1.9000618
C          -0.4853952    -0.3162177     1.4829258
H          -0.6138508    -0.7644300     2.4650669
C           6.1301644    -0.3072950     0.5596321
H           7.1312470    -0.5235045     0.9209421
C           5.1865775     0.2859507     1.4005545
H           5.4558173     0.5471667     2.4207737
C           0.8050181    -0.1771363     0.9716276
H           1.6507764    -0.5360342     1.5455600
C           3.9015767     0.5745643     0.9442623
H           3.1960251     1.0817317     1.5931013
C           3.5279326     0.2457861    -0.3706172
C           4.4832097    -0.3458009    -1.2147890
H           4.2053510    -0.6043793    -2.2345266
C           5.7710839    -0.6103901    -0.7550557
H           6.4927173    -1.0676791    -1.4270360
