24
004_C12H11N_6-7-19-17 (-165,) energy =    -518.6516738
C           0.8227116     0.3042302     1.2291073
H           1.6387306     0.8123647     1.7304405
C          -0.3345129    -0.0198411     1.9354081
H          -0.3893984     0.2200243     2.9942860
C          -1.4209501    -0.6232160     1.2995968
H          -2.3198256    -0.8687468     1.8573231
C           0.9201885     0.0057906    -0.1417067
N           2.0385987     0.3438018    -0.9122921
H           1.8652085     0.4198711    -1.9046401
C          -1.3358320    -0.9001255    -0.0665345
H          -2.1715490    -1.3655065    -0.5828037
C           6.1381285     0.6214684     0.0495281
H           7.1961437     0.6975729     0.2820800
C           5.6261162     1.1838242    -1.1221042
H           6.2858461     1.7025438    -1.8129704
C          -0.1787628    -0.5980629    -0.7791497
H          -0.1144412    -0.8351557    -1.8391919
C           4.2685176     1.0971077    -1.4145228
H           3.8761359     1.5536987    -2.3209923
C           3.3859847     0.4318121    -0.5432378
C           3.9072387    -0.1507139     0.6254384
H           3.2571755    -0.7055813     1.2918693
C           5.2673280    -0.0439618     0.9133829
H           5.6491523    -0.5031215     1.8218313
24
004_C12H11N_6-7-19-17 (-150,) energy =    -518.6516688
C           0.8762595     0.2322673     1.1950534
H           1.7376246     0.6706664     1.6858009
C          -0.3015379     0.0265482     1.9125140
H          -0.3273777     0.2914064     2.9665913
C          -1.4406644    -0.4921951     1.2955806
H          -2.3540038    -0.6467544     1.8623509
C           0.9381237    -0.0991568    -0.1696832
N           2.0774710     0.1022280    -0.9584493
H           1.8961274     0.2428310    -1.9422524
C          -1.3873199    -0.8057763    -0.0646145
H          -2.2632796    -1.2078575    -0.5672549
C           6.1176088     0.7165980     0.0892452
H           7.1613239     0.8735290     0.3449806
C           5.5787420     1.2801223    -1.0693628
H           6.2024979     1.8828940    -1.7244463
C          -0.2134994    -0.6200291    -0.7884273
H          -0.1758763    -0.8844922    -1.8432392
C           4.2374093     1.0909101    -1.3905260
H           3.8214936     1.5502312    -2.2849407
C           3.4042788     0.3141222    -0.5654258
C           3.9550686    -0.2689187     0.5894738
H           3.3413353    -0.9061126     1.2164718
C           5.2947968    -0.0562763     0.9104847
H           5.7007430    -0.5167414     1.8076678
24
004_C12H11N_6-7-19-17 (-135,) energy =    -518.6512415
C           0.9276925     0.1680516     1.1664364
H           1.8209894     0.5490992     1.6479637
C          -0.2621528     0.0694886     1.8875993
H          -0.2674910     0.3634670     2.9342859
C          -1.4364051    -0.3819498     1.2845061
H          -2.3582004    -0.4539066     1.8540917
C           0.9629529    -0.2018072    -0.1883660
N           2.1192444    -0.1266268    -0.9801381
H           1.9356468     0.0344174    -1.9613497
C          -1.4063644    -0.7378439    -0.0662218
H          -2.3093953    -1.0895583    -0.5587134
C           6.0764088     0.8254544     0.1352923
H           7.0992815     1.0653395     0.4105123
C           5.4966940     1.3974736    -0.9984396
H           6.0658386     2.0907651    -1.6123359
C          -0.2234098    -0.6562193    -0.7938228
H          -0.2058376    -0.9514852    -1.8409954
C           4.1795525     1.1019314    -1.3442308
H           3.7259466     1.5691292    -2.2158090
C           3.4226538     0.2043120    -0.5733722
C           4.0155036    -0.3835758     0.5573368
H           3.4543180    -1.1056107     1.1412904
C           5.3253297    -0.0628845     0.9083517
H           5.7673410    -0.5278215     1.7858722
24
004_C12H11N_6-7-19-17 (-120,) energy =    -518.6503289
C           0.9728938     0.1209831     1.1451026
H           1.8906073     0.4449716     1.6229156
C          -0.2238528     0.1270246     1.8619929
H          -0.2119783     0.4493870     2.9002690
C          -1.4244207    -0.2586684     1.2654815
H          -2.3512531    -0.2489980     1.8313859
C           0.9866657    -0.2871614    -0.1982642
N           2.1561607    -0.3350536    -0.9793000
H           1.9768803    -0.1912181    -1.9651264
C          -1.4136815    -0.6564950    -0.0738847
H          -2.3370822    -0.9593537    -0.5611376
C           6.0231845     0.9093908     0.1778122
H           7.0225756     1.2215019     0.4671120
C           5.3863288     1.5051280    -0.9118485
H           5.8858053     2.2897070    -1.4742411
C          -0.2254328    -0.6767779    -0.7972302
H          -0.2247937    -1.0023928    -1.8356156
C           4.0975382     1.1150163    -1.2747941
H           3.5945128     1.5995494    -2.1087218
C           3.4379930     0.0964904    -0.5710178
C           4.0870148    -0.5097816     0.5162714
H           3.5908564    -1.3153937     1.0485703
C           5.3637072    -0.0949962     0.8906793
H           5.8533619    -0.5742908     1.7343933
24
004_C12H11N_6-7-19-17 (-105,) energy =    -518.6490835
C           1.0053994     0.0946201     1.1247570
H           1.9389534     0.3680746     1.6040967
C          -0.1965093     0.2089390     1.8238066
H          -0.1754132     0.5677905     2.8499278
C          -1.4132244    -0.1181958     1.2250125
H          -2.3441394    -0.0240128     1.7763122
C           1.0070919    -0.3627463    -0.2024716
N           2.1877249    -0.5336103    -0.9525795
H           2.0221008    -0.4513501    -1.9488708
C          -1.4132579    -0.5682037    -0.0977767
H          -2.3491825    -0.8271669    -0.5865414
C           5.9685622     0.9714535     0.1967307
H           6.9446742     1.3495432     0.4873934
C           5.2530119     1.5894090    -0.8299948
H           5.6671817     2.4556678    -1.3391969
C          -0.2209008    -0.6934583    -0.8038609
H          -0.2307751    -1.0557200    -1.8301475
C           3.9936322     1.1122710    -1.1952698
H           3.4247489     1.6091446    -1.9777159
C           3.4510671    -0.0124251    -0.5595059
C           4.1762255    -0.6352491     0.4658525
H           3.7590150    -1.5156707     0.9453485
C           5.4218286    -0.1377450     0.8466881
H           5.9749027    -0.6297530     1.6424217
24
004_C12H11N_6-7-19-17 (-90,) energy =    -518.6479928
C           0.9191653     0.6221250     0.8398104
H           1.7992127     1.1762697     1.1486203
C          -0.2716678     0.7459673     1.5554925
H          -0.3002510     1.4053403     2.4195550
C          -1.4130585     0.0346905     1.1839684
H          -2.3355095     0.1348888     1.7483168
C           0.9843536    -0.2243979    -0.2784706
N           2.1473277    -0.3500628    -1.0638832
H           2.1703488    -1.2289507    -1.5688494
C          -1.3483010    -0.8106283     0.0734314
H          -2.2242081    -1.3766978    -0.2337486
C           6.0021122     0.8041105     0.2483238
H           6.9970839     1.1011645     0.5682258
C           5.1533542     1.7328803    -0.3579858
H           5.4885975     2.7542494    -0.5174603
C          -0.1675775    -0.9397174    -0.6518278
H          -0.1304320    -1.5948648    -1.5202684
C           3.8815352     1.3488502    -0.7839139
H           3.2231177     2.0529424    -1.2838345
C           3.4356070     0.0375561    -0.5794824
C           4.2883432    -0.8902777     0.0318118
H           3.9420055    -1.9085483     0.1914764
C           5.5688458    -0.5097461     0.4356164
H           6.2245789    -1.2390233     0.9039341
24
004_C12H11N_6-7-19-17 (-75,) energy =    -518.6493274
C           0.8973051     0.6305087     0.8509432
H           1.7822104     1.1619006     1.1837524
C          -0.3223849     0.8344933     1.4967631
H          -0.3669157     1.5354857     2.3266699
C          -1.4711120     0.1486789     1.1016376
H          -2.4159273     0.3120666     1.6115674
C           0.9839464    -0.2715726    -0.2210613
N           2.1763802    -0.4982085    -0.9373862
H           2.2053512    -1.4240019    -1.3481436
C          -1.3846103    -0.7538574     0.0385081
H          -2.2659249    -1.3014717    -0.2859561
C           6.0287615     0.8286676     0.1890140
H           7.0243715     1.1692917     0.4589894
C           5.0694273     1.7417754    -0.2560431
H           5.3197475     2.7958315    -0.3427885
C          -0.1758777    -0.9608248    -0.6188838
H          -0.1216208    -1.6569795    -1.4537055
C           3.7963601     1.3065028    -0.6205355
H           3.0597087     2.0059436    -1.0042237
C           3.4537597    -0.0489135    -0.5074034
C           4.4190726    -0.9614104    -0.0610881
H           4.1586794    -2.0139033     0.0251192
C           5.7010347    -0.5250844     0.2754354
H           6.4403477    -1.2452452     0.6160392
24
004_C12H11N_6-7-19-17 (-60,) energy =    -518.6505837
C           0.8763889     0.6188378     0.8946967
H           1.7617975     1.1156456     1.2751791
C          -0.3705942     0.8936575     1.4565362
H          -0.4338248     1.6173588     2.2654307
C          -1.5224869     0.2477001     1.0072606
H          -2.4885919     0.4669683     1.4521366
C           0.9881905    -0.3137990    -0.1489322
N           2.2078768    -0.6314370    -0.7740515
H           2.2366192    -1.5797070    -1.1267749
C          -1.4113602    -0.6878805    -0.0245793
H          -2.2946946    -1.2056126    -0.3898891
C           6.0586898     0.8585171     0.1096095
H           7.0545657     1.2385529     0.3183595
C           5.0153979     1.7385355    -0.1893515
H           5.2005871     2.8089692    -0.2254699
C          -0.1753434    -0.9629852    -0.6009009
H          -0.1008655    -1.6815794    -1.4146712
C           3.7388711     1.2573734    -0.4726336
H           2.9409246     1.9406174    -0.7460826
C           3.4766559    -0.1218805    -0.4248553
C           4.5279219    -1.0019925    -0.1269811
H           4.3339994    -2.0718543    -0.0912537
C           5.8091742    -0.5143444     0.1284526
H           6.6110583    -1.2123069     0.3547327
24
004_C12H11N_6-7-19-17 (-45,) energy =    -518.6513930
C           0.8483615     0.6046124     0.9531609
H           1.7264417     1.0699495     1.3861553
C          -0.4201362     0.9376391     1.4277853
H          -0.5070992     1.6786256     2.2185584
C          -1.5651468     0.3255775     0.9170122
H          -2.5484340     0.5904156     1.2942926
C           0.9905516    -0.3517305    -0.0662288
N           2.2322367    -0.7443739    -0.5887136
H           2.2571945    -1.6970072    -0.9260962
C          -1.4248221    -0.6361659    -0.0866051
H          -2.3023394    -1.1286243    -0.4978388
C           6.0776045     0.8836718     0.0148035
H           7.0723171     1.2960389     0.1562407
C           4.9787063     1.7287033    -0.1555349
H           5.1175617     2.8068090    -0.1599001
C          -0.1663610    -0.9677286    -0.5785401
H          -0.0680081    -1.7050940    -1.3726820
C           3.6998823     1.2095267    -0.3467944
H           2.8610718     1.8752966    -0.5201966
C           3.4938359    -0.1812462    -0.3422031
C           4.6028275    -1.0274576    -0.1745126
H           4.4546475    -2.1053694    -0.1700319
C           5.8805795    -0.4981732    -0.0067066
H           6.7237805    -1.1723404     0.1196611
24
004_C12H11N_6-7-19-17 (-30,) energy =    -518.6517005
C           0.8196771     0.5833309     1.0268268
H           1.6827475     1.0237703     1.5127886
C          -0.4649678     0.9605169     1.4161019
H          -0.5790293     1.7144850     2.1909551
C          -1.5938252     0.3739012     0.8424025
H          -2.5903332     0.6726355     1.1538928
C           0.9969909    -0.3904216     0.0283649
N           2.2555089    -0.8365370    -0.3913974
H           2.2724547    -1.7726971    -0.7704502
C          -1.4203340    -0.6074413    -0.1363897
H          -2.2849051    -1.0809825    -0.5945270
C           6.0862252     0.9067992    -0.1051008
H           7.0777941     1.3448024    -0.0398263
C           4.9529241     1.7206948    -0.1476742
H           5.0596550     2.8023867    -0.1287876
C          -0.1439316    -0.9814346    -0.5454621
H          -0.0189067    -1.7335308    -1.3218025
C           3.6752596     1.1703707    -0.2361323
H           2.8099357     1.8194295    -0.3099679
C           3.5080252    -0.2256192    -0.2626716
C           4.6531637    -1.0416984    -0.2233620
H           4.5356678    -2.1233008    -0.2411816
C           5.9247103    -0.4795677    -0.1534586
H           6.7935577    -1.1321873    -0.1257597
24
004_C12H11N_6-7-19-17 (-15,) energy =    -518.6516444
C           0.7892207     0.5632051     1.1080489
H           1.6289798     0.9691439     1.6607743
C          -0.5063690     0.9880345     1.3977142
H          -0.6525068     1.7475050     2.1616411
C          -1.6083270     0.4387687     0.7397574
H          -2.6144488     0.7731933     0.9747471
C           1.0072844    -0.4182545     0.1247306
N           2.2804709    -0.9157300    -0.1778730
H           2.2877237    -1.8271868    -0.6138033
C          -1.3968127    -0.5524685    -0.2208140
H          -2.2404562    -0.9972522    -0.7423124
C           6.0797371     0.9228670    -0.1989519
H           7.0640497     1.3814765    -0.2073579
C           4.9297711     1.7103433    -0.1339786
H           5.0142887     2.7937848    -0.1036205
C          -0.1063536    -0.9719172    -0.5321595
H           0.0499278    -1.7310354    -1.2959342
C           3.6600354     1.1337670    -0.1240579
H           2.7808482     1.7672933    -0.1118693
C           3.5198694    -0.2643317    -0.1659111
C           4.6824150    -1.0549381    -0.2341158
H           4.5869180    -2.1385401    -0.2620193
C           5.9427376    -0.4661544    -0.2572117
H           6.8239381    -1.1002541    -0.3122759
24
004_C12H11N_6-7-19-17 (0,) energy =    -518.6511715
C           0.6040781     1.0543271    -0.0288090
H           1.2979301     1.8217492    -0.3538326
C          -0.6624634     1.4088082     0.4325943
H          -0.9278954     2.4612736     0.4912235
C          -1.5935076     0.4328425     0.7933682
H          -2.5804956     0.7169962     1.1463281
C           0.9724856    -0.2998188    -0.1129979
N           2.2174092    -0.7058250    -0.6207869
H           2.2315357    -1.6625893    -0.9483165
C          -1.2406777    -0.9136056     0.6853527
H          -1.9530865    -1.6885476     0.9561819
C           6.1155563     0.7265192     0.1554568
H           7.1237367     1.0854592     0.3397189
C           5.0252337     1.3052387     0.8046294
H           5.1816199     2.1169846     1.5107378
C           0.0297112    -1.2782474     0.2456405
H           0.3034298    -2.3295746     0.1842709
C           3.7246892     0.8550608     0.5759108
H           2.8999702     1.3011333     1.1185098
C           3.4914372    -0.1974345    -0.3250220
C           4.5949874    -0.7798087    -0.9774714
H           4.4274486    -1.5905434    -1.6839321
C           5.8869756    -0.3259495    -0.7346857
H           6.7203053    -0.7964026    -1.2503591
24
004_C12H11N_6-7-19-17 (15,) energy =    -518.6516443
C           0.6641474     1.0123399     0.0225093
H           1.4048092     1.7559812    -0.2493292
C          -0.6209166     1.4102180     0.3874817
H          -0.8542699     2.4714556     0.4202980
C          -1.6079826     0.4694503     0.6869106
H          -2.6076345     0.7886297     0.9664736
C           0.9925761    -0.3541256    -0.0284358
N           2.2523611    -0.8140521    -0.4306122
H           2.2687055    -1.7664287    -0.7675127
C          -1.2913732    -0.8886738     0.6148657
H          -2.0456750    -1.6383610     0.8396587
C           6.1203526     0.7974863     0.0751491
H           7.1214718     1.2004845     0.1960737
C           5.0547832     1.3084393     0.8171108
H           5.2256205     2.1088043     1.5327372
C          -0.0062929    -1.2982594     0.2697585
H           0.2364299    -2.3583960     0.2351608
C           3.7648615     0.7988085     0.6722933
H           2.9606184     1.1856181     1.2871716
C           3.5150341    -0.2386692    -0.2427389
C           4.5930238    -0.7525821    -0.9875997
H           4.4106532    -1.5520015    -1.7029358
C           5.8777662    -0.2443291    -0.8232699
H           6.6926228    -0.6609366    -1.4098676
24
004_C12H11N_6-7-19-17 (30,) energy =    -518.6517004
C           0.7116589     0.9733239     0.0868838
H           1.4912997     1.6974959    -0.1199115
C          -0.5876174     1.4066749     0.3479868
H          -0.7921370     2.4742936     0.3633467
C          -1.6212207     0.4953065     0.5684544
H          -2.6304970     0.8425039     0.7687386
C           1.0048324    -0.4014012     0.0592292
N           2.2788152    -0.9075444    -0.2234294
H           2.2911007    -1.8373390    -0.6180001
C          -1.3365539    -0.8714625     0.5227734
H          -2.1264572    -1.5998132     0.6876118
C           6.1064821     0.8515811    -0.0022850
H           7.0978567     1.2915133     0.0519807
C           5.0817897     1.3085384     0.8282483
H           5.2766100     2.1018067     1.5455874
C          -0.0409468    -1.3169745     0.2791948
H           0.1748523    -2.3833630     0.2638378
C           3.8063598     0.7489105     0.7713486
H           3.0346401     1.0885847     1.4529539
C           3.5267344    -0.2787748    -0.1468434
C           4.5634889    -0.7385877    -0.9791047
H           4.3578759    -1.5319220    -1.6948781
C           5.8377814    -0.1839856    -0.8999938
H           6.6219029    -0.5581902    -1.5532241
24
004_C12H11N_6-7-19-17 (45,) energy =    -518.6513930
C           0.7595253     0.9364857     0.1431364
H           1.5674095     1.6424259    -0.0118885
C          -0.5458748     1.3995716     0.3064006
H          -0.7283170     2.4712535     0.2934550
C          -1.6109552     0.5129541     0.4677849
H          -2.6241472     0.8833403     0.5925967
C           1.0241475    -0.4433628     0.1528102
N           2.3078488    -0.9843546    -0.0132776
H           2.3207411    -1.8995487    -0.4424323
C          -1.3519000    -0.8599242     0.4633070
H          -2.1660878    -1.5699496     0.5842878
C           6.0750194     0.9146263    -0.0926140
H           7.0518048     1.3891021    -0.1094423
C           5.1111547     1.3113830     0.8369299
H           5.3402893     2.0912693     1.5586669
C          -0.0526530    -1.3348287     0.3148498
H           0.1418569    -2.4053387     0.3300824
C           3.8583641     0.7023494     0.8723915
H           3.1334863     0.9901943     1.6264558
C           3.5362741    -0.3067583    -0.0521534
C           4.5103822    -0.7051903    -0.9829202
H           4.2719203    -1.4854207    -1.7028180
C           5.7677318    -0.1053522    -0.9948527
H           6.5060152    -0.4311766    -1.7229981
24
004_C12H11N_6-7-19-17 (60,) energy =    -518.6505836
C           0.8003446     0.9080187     0.1852311
H           1.6289205     1.6000744     0.0850288
C          -0.5066123     1.3923504     0.2440351
H          -0.6714943     2.4661099     0.2002715
C          -1.5937815     0.5239185     0.3431112
H          -2.6077396     0.9103856     0.3864817
C           1.0420096    -0.4742078     0.2362535
N           2.3316364    -1.0351591     0.1968947
H           2.3515979    -1.9560570    -0.2226258
C          -1.3554713    -0.8522695     0.3840362
H          -2.1869688    -1.5485376     0.4588226
C           6.0346083     0.9613063    -0.1705529
H           6.9959013     1.4596810    -0.2562575
C           5.1537974     1.2968996     0.8608465
H           5.4338986     2.0524509     1.5902975
C          -0.0562908    -1.3477496     0.3372636
H           0.1204398    -2.4204132     0.3855955
C           3.9255096     0.6509553     0.9849421
H           3.2623020     0.8843032     1.8119848
C           3.5413159    -0.3236949     0.0490578
C           4.4300347    -0.6594968    -0.9832613
H           4.1415550    -1.4156448    -1.7102443
C           5.6691562    -0.0278129    -1.0845497
H           6.3448849    -0.3037344    -1.8899009
24
004_C12H11N_6-7-19-17 (75,) energy =    -518.6493274
C           0.8357325     0.8890882     0.2272025
H           1.6742606     1.5754356     0.1825909
C          -0.4694408     1.3790023     0.1761178
H          -0.6248869     2.4523201     0.0991428
C          -1.5654330     0.5165596     0.2112409
H          -2.5779889     0.9068517     0.1687741
C           1.0657405    -0.4923906     0.3229176
N           2.3572529    -1.0496866     0.4125498
H           2.3909685    -1.9949657     0.0492583
C          -1.3374626    -0.8589995     0.3005248
H          -2.1756024    -1.5508814     0.3272069
C           5.9896633     1.0097879    -0.2476296
H           6.9324935     1.5256914    -0.4060233
C           5.2256046     1.2727014     0.8922567
H           5.5778625     1.9884312     1.6303950
C          -0.0406737    -1.3600767     0.3596393
H           0.1259382    -2.4325017     0.4411139
C           4.0241295     0.5995170     1.1073906
H           3.4458880     0.7715923     2.0102342
C           3.5511199    -0.3216943     0.1612907
C           4.3203660    -0.5828388    -0.9804837
H           3.9594799    -1.2980919    -1.7161395
C           5.5363610     0.0727603    -1.1770776
H           6.1241381    -0.1433657    -2.0653331
24
004_C12H11N_6-7-19-17 (90,) energy =    -518.6479928
C           0.8554876     0.8767079     0.2175621
H           1.6974507     1.5607190     0.2054196
C          -0.4419436     1.3622141     0.0545203
H          -0.5909295     2.4306940    -0.0809375
C          -1.5392753     0.5004882     0.0553521
H          -2.5459791     0.8865342    -0.0748799
C           1.0763446    -0.4988911     0.3917764
N           2.3608016    -1.0362904     0.6075571
H           2.4116769    -2.0139702     0.3438875
C          -1.3203313    -0.8689254     0.2251319
H          -2.1596358    -1.5599909     0.2270308
C           5.9478065     1.0192738    -0.2987735
H           6.8774428     1.5362384    -0.5202920
C           5.3248276     1.1948375     0.9388415
H           5.7721134     1.8443786     1.6865354
C          -0.0312378    -1.3656576     0.3932553
H           0.1273292    -2.4334339     0.5328898
C           4.1396408     0.5191758     1.2307996
H           3.6610212     0.6231178     2.1999734
C           3.5503529    -0.3162360     0.2742727
C           4.1762610    -0.4873356    -0.9669661
H           3.7183503    -1.1354454    -1.7103269
C           5.3741606     0.1712196    -1.2478536
H           5.8544723     0.0271089    -2.2120568
24
004_C12H11N_6-7-19-17 (105,) energy =    -518.6490835
C           0.8356477     0.7030126    -0.3625217
H           1.6706647     1.3083030    -0.6978393
C          -0.4699714     1.1692452    -0.5184370
H          -0.6295793     2.1386394    -0.9842095
C          -1.5610717     0.4192760    -0.0790994
H          -2.5738589     0.7912569    -0.2027785
C           1.0709223    -0.5435727     0.2386324
N           2.3614484    -1.0874593     0.3951424
H           2.4118524    -1.7319632     1.1754435
C          -1.3277582    -0.8191071     0.5244310
H          -2.1618844    -1.4207586     0.8767902
C           5.9400616     1.1006942    -0.1399984
H           6.8643084     1.6539130    -0.2812375
C           5.5065847     0.7734476     1.1457128
H           6.0893373     1.0762034     2.0117182
C          -0.0309411    -1.2988382     0.6796151
H           0.1393528    -2.2698620     1.1408153
C           4.3130306     0.0740801     1.3285691
H           3.9619238    -0.1586720     2.3312081
C           3.5569281    -0.3369500     0.2227283
C           3.9996278    -0.0133464    -1.0673979
H           3.4188333    -0.3470512    -1.9220575
C           5.1782993     0.7102517    -1.2440599
H           5.5116737     0.9543733    -2.2492564
24
004_C12H11N_6-7-19-17 (120,) energy =    -518.6503289
C           0.8020166     0.7332968    -0.3516473
H           1.6262228     1.3724531    -0.6476800
C          -0.5115266     1.1346938    -0.5958932
H          -0.6857677     2.0855765    -1.0934257
C          -1.5923688     0.3456694    -0.2019785
H          -2.6114270     0.6675228    -0.3950860
C           1.0566216    -0.4881714     0.2922466
N           2.3531961    -0.9662350     0.5575339
H           2.3934320    -1.5605327     1.3759931
C          -1.3406585    -0.8658845     0.4469147
H          -2.1666570    -1.4969007     0.7652741
C           5.9918954     1.0476276    -0.1811438
H           6.9334664     1.5545328    -0.3718823
C           5.6461615     0.6674111     1.1164510
H           6.3159994     0.8818529     1.9450997
C          -0.0352941    -1.2826628     0.6875283
H           0.1508839    -2.2349149     1.1802997
C           4.4309136     0.0296045     1.3639839
H           4.1535335    -0.2421676     2.3800758
C           3.5558941    -0.2679218     0.3087508
C           3.9130726     0.1041113    -0.9970088
H           3.2508540    -0.1459662    -1.8200849
C           5.1162861     0.7665359    -1.2328943
H           5.3790697     1.0477305    -2.2493650
24
004_C12H11N_6-7-19-17 (135,) energy =    -518.6512416
C           0.7564234     0.7802627    -0.3234195
H           1.5614698     1.4608660    -0.5759222
C          -0.5595459     1.1094322    -0.6480092
H          -0.7539403     2.0441654    -1.1680771
C          -1.6194472     0.2703636    -0.3029691
H          -2.6408687     0.5361393    -0.5586926
C           1.0364229    -0.4197340     0.3511400
N           2.3324736    -0.8171894     0.7154304
H           2.3673111    -1.3920208     1.5464846
C          -1.3441699    -0.9172287     0.3795179
H          -2.1537670    -1.5857289     0.6612368
C           6.0427721     0.9628306    -0.2212585
H           7.0038923     1.4091395    -0.4592700
C           5.7590799     0.5461079     1.0804920
H           6.4992290     0.6695226     1.8668597
C          -0.0349127    -1.2636916     0.6979344
H           0.1715030    -2.1989064     1.2144727
C           4.5207330    -0.0132089     1.3894259
H           4.2977407    -0.3147241     2.4107065
C           3.5478879    -0.1908341     0.3919617
C           3.8436106     0.2131192    -0.9213358
H           3.1151383     0.0496850    -1.7086694
C           5.0759183     0.7937150    -1.2148825
H           5.2869705     1.0997368    -2.2363337
24
004_C12H11N_6-7-19-17 (150,) energy =    -518.6516689
C           0.7068801     0.8397953    -0.2890870
H           1.4831928     1.5653972    -0.5031407
C          -0.6064953     1.0912268    -0.6841658
H          -0.8257645     2.0087622    -1.2244845
C          -1.6345167     0.1975764    -0.3810675
H          -2.6547044     0.4033452    -0.6912019
C           1.0195078    -0.3375528     0.4125422
N           2.3097021    -0.6446380     0.8618953
H           2.3468818    -1.2401604     1.6770540
C          -1.3295994    -0.9645618     0.3315114
H          -2.1145955    -1.6735857     0.5818857
C           6.0857474     0.8561722    -0.2726818
H           7.0641375     1.2322598    -0.5567276
C           5.8468505     0.4133133     1.0300624
H           6.6412629     0.4436188     1.7713657
C          -0.0204949    -1.2350426     0.7179755
H           0.2105114    -2.1518302     1.2566024
C           4.5889861    -0.0558523     1.3984956
H           4.4068455    -0.3803295     2.4209809
C           3.5405639    -0.1105557     0.4624590
C           3.7901807     0.3167041    -0.8536648
H           3.0083929     0.2430687    -1.6014637
C           5.0485380     0.8024604    -1.2054548
H           5.2203852     1.1271893    -2.2285749
24
004_C12H11N_6-7-19-17 (165,) energy =    -518.6516739
C           0.6467394     0.9116054    -0.2551302
H           1.3833112     1.6892978    -0.4226444
C          -0.6540726     1.0713805    -0.7300153
H          -0.9039554     1.9692549    -1.2896149
C          -1.6351008     0.1105716    -0.4790478
H          -2.6468660     0.2452171    -0.8499036
C           0.9968240    -0.2400485     0.4720460
N           2.2739982    -0.4375510     1.0096369
H           2.3138029    -1.0812010     1.7872761
C          -1.2962255    -1.0235581     0.2620193
H          -2.0455546    -1.7822232     0.4728710
C           6.0985312     0.7572551    -0.3151717
H           7.0891381     1.0578458    -0.6432146
C           5.8875858     0.3128771     0.9923514
H           6.7170778     0.2636333     1.6931593
C           0.0038031    -1.2033696     0.7261615
H           0.2631826    -2.0995550     1.2861746
C           4.6163327    -0.0606455     1.4167648
H           4.4587364    -0.3892623     2.4420842
C           3.5198798    -0.0105317     0.5356152
C           3.7388086     0.4178738    -0.7853274
H           2.9207092     0.4243816    -1.4961649
C           5.0153502     0.8031802    -1.1934975
H           5.1617389     1.1298825    -2.2200132
24
004_C12H11N_6-7-19-17 (180,) energy =    -518.6512092
C           0.5916820     0.9826567    -0.2216731
H           1.2761738     1.8145356    -0.3459200
C          -0.6908081     1.0471586    -0.7637460
H          -0.9784647     1.9253033    -1.3361883
C          -1.6089085     0.0153313    -0.5592755
H          -2.6083101     0.0758260    -0.9799891
C           0.9890593    -0.1425091     0.5217465
N           2.2518141    -0.2306842     1.1286230
H           2.2938686    -0.8867534     1.8968951
C          -1.2266395    -1.0912842     0.2013341
H          -1.9283763    -1.9026496     0.3764453
C           6.1068119     0.6498288    -0.3571097
H           7.1048938     0.8721311    -0.7226386
C           5.9141664     0.1848620     0.9462422
H           6.7657989     0.0379915     1.6056574
C           0.0593169    -1.1757202     0.7296666
H           0.3556591    -2.0513555     1.3035907
C           4.6352836    -0.0925319     1.4172593
H           4.4959108    -0.4433719     2.4380521
C           3.5082503     0.0867747     0.5925788
C           3.7066052     0.5357641    -0.7241286
H           2.8636772     0.6407450    -1.3964106
C           4.9941564     0.8170430    -1.1814291
H           5.1228903     1.1613604    -2.2046007
