29
457_C12H15NO_3-16-23-24 (-165,) energy =    -596.3045306
C           0.9798034     0.9263123     0.3395039
H           1.7401857     1.5298234    -0.1548771
H           1.0391512     1.1555961     1.4178041
N          -0.3544841     1.3071867    -0.1499375
C          -1.4361844     0.5909241     0.5377919
H          -2.3836555     0.9456058     0.1316764
H          -1.4304932     0.8422847     1.6116724
C           1.2268084    -0.5715261     0.1335509
H           1.2523322    -0.7875529    -0.9433391
H           2.2101678    -0.8361183     0.5419792
C          -1.2669062    -0.9209313     0.3470803
H          -2.0561822    -1.4431819     0.9019164
H          -1.4073224    -1.1597706    -0.7155348
C           0.1194745    -1.3982055     0.8043005
H           0.2001004    -1.2861664     1.8955759
H           0.2506095    -2.4651810     0.5873280
C          -0.6447314     2.5815367    -0.6158080
C           1.8813848     4.6091377    -3.4598007
H           2.4876096     5.1352569    -4.1925121
C           2.0041586     3.2266628    -3.3131765
H           2.6936987     2.6701567    -3.9423795
C           1.2283482     2.5500225    -2.3713868
H           1.2964005     1.4691261    -2.3031151
C           0.3285310     3.2507239    -1.5536783
C           0.1778835     4.6320733    -1.7457036
H          -0.5633791     5.1552745    -1.1510149
C           0.9599156     5.3098138    -2.6773851
H           0.8423943     6.3827789    -2.8032996
O          -1.7266098     3.1172922    -0.3850870
29
457_C12H15NO_3-16-23-24 (-150,) energy =    -596.3060961
C           0.9547654     0.9738075     0.3018187
H           1.6835920     1.5776419    -0.2374803
H           1.0405463     1.2392871     1.3697353
N          -0.3998364     1.3065322    -0.1572899
C          -1.4525907     0.5737811     0.5553913
H          -2.4125029     0.8950062     0.1512667
H          -1.4390492     0.8502909     1.6229137
C           1.2351366    -0.5238688     0.1349151
H           1.2462376    -0.7702384    -0.9356575
H           2.2327875    -0.7509908     0.5310375
C          -1.2432101    -0.9373136     0.4010245
H          -2.0086929    -1.4675123     0.9810896
H          -1.3915764    -1.2081399    -0.6528557
C           0.1633337    -1.3598927     0.8500681
H           0.2574009    -1.2100405     1.9358220
H           0.3224567    -2.4291690     0.6655847
C          -0.7442819     2.5116533    -0.7416249
C           1.9377342     4.6019365    -3.3863430
H           2.5892802     5.1449165    -4.0658875
C           1.9587612     3.2064545    -3.3630470
H           2.6160748     2.6591868    -4.0334879
C           1.1274930     2.5087390    -2.4858902
H           1.1263784     1.4225851    -2.4932641
C           0.2639536     3.2004519    -1.6243118
C           0.2221341     4.6003670    -1.6831458
H          -0.4847804     5.1251854    -1.0486744
C           1.0648288     5.2975997    -2.5457785
H           1.0335745     6.3835422    -2.5716986
O          -1.8702634     2.9910673    -0.6229414
29
457_C12H15NO_3-16-23-24 (-135,) energy =    -596.3062505
C           0.9253586     1.0185793     0.2760733
H           1.6294848     1.6264475    -0.2909121
H           1.0225303     1.3088768     1.3361453
N          -0.4417152     1.3097065    -0.1650064
C          -1.4735251     0.5580666     0.5564942
H          -2.4406311     0.8523517     0.1491935
H          -1.4597928     0.8490758     1.6198715
C           1.2391159    -0.4760731     0.1344600
H           1.2479624    -0.7403000    -0.9318142
H           2.2451362    -0.6723455     0.5259168
C          -1.2266647    -0.9496861     0.4243047
H          -1.9744725    -1.4907595     1.0172765
H          -1.3735819    -1.2412011    -0.6242857
C           0.1936001    -1.3261024     0.8718538
H           0.2898782    -1.1543162     1.9542261
H           0.3801543    -2.3939575     0.7056997
C          -0.8258383     2.4274610    -0.8745648
C           1.9869181     4.5921490    -3.3160982
H           2.6759851     5.1531588    -3.9417918
C           1.9270979     3.2009633    -3.4146541
H           2.5617651     2.6762905    -4.1238944
C           1.0483354     2.4797752    -2.6050933
H           0.9952478     1.3976657    -2.6910546
C           0.2117971     3.1457145    -1.6990315
C           0.2589343     4.5438796    -1.6248318
H          -0.4180637     5.0564967    -0.9484389
C           1.1511460     5.2619695    -2.4189196
H           1.1883306     6.3455618    -2.3454905
O          -1.9870768     2.8315943    -0.8803224
29
457_C12H15NO_3-16-23-24 (-120,) energy =    -596.3054588
C           0.9064708     1.0649108     0.2829158
H           1.5889815     1.6784507    -0.3045200
H           1.0143600     1.3698533     1.3373265
N          -0.4703558     1.3256425    -0.1398901
C          -1.4841772     0.5550305     0.5852922
H          -2.4568700     0.8296541     0.1772931
H          -1.4690604     0.8514210     1.6467476
C           1.2464896    -0.4258225     0.1515907
H           1.2524660    -0.6970000    -0.9129027
H           2.2590261    -0.6004095     0.5364986
C          -1.2082374    -0.9486951     0.4613571
H          -1.9404484    -1.5011469     1.0632816
H          -1.3560510    -1.2507756    -0.5841157
C           0.2229494    -1.2910876     0.9022888
H           0.3223141    -1.1100006     1.9829084
H           0.4309688    -2.3559341     0.7423176
C          -0.8776819     2.3536464    -0.9575442
C           2.0135701     4.5821355    -3.2494412
H           2.7250937     5.1567556    -3.8363642
C           1.8620519     3.2133049    -3.4778997
H           2.4504905     2.7201602    -4.2471388
C           0.9535478     2.4737036    -2.7191147
H           0.8363419     1.4077853    -2.8977334
C           0.1774391     3.1013965    -1.7362118
C           0.3231385     4.4775307    -1.5221393
H          -0.2978923     4.9667905    -0.7774498
C           1.2436797     5.2120616    -2.2686988
H           1.3550611     6.2782824    -2.0903967
O          -2.0583635     2.6750711    -1.0742458
29
457_C12H15NO_3-16-23-24 (-105,) energy =    -596.3044943
C           0.8873470     1.1259904     0.3003715
H           1.5594958     1.7437628    -0.2951486
H           0.9806226     1.4525424     1.3491295
N          -0.4900176     1.3490792    -0.1380922
C          -1.4980010     0.5598730     0.5741898
H          -2.4677136     0.8052700     0.1409308
H          -1.5089874     0.8695625     1.6314492
C           1.2621311    -0.3593920     0.1961396
H           1.2884771    -0.6444605    -0.8643393
H           2.2732058    -0.5055691     0.5965337
C          -1.1835928    -0.9384979     0.4756633
H          -1.9118247    -1.5013652     1.0727907
H          -1.3059120    -1.2580943    -0.5678939
C           0.2482904    -1.2371633     0.9454182
H           0.3251045    -1.0350166     2.0242316
H           0.4855864    -2.2990027     0.8078334
C          -0.8964128     2.2779395    -1.0644112
C           2.0474852     4.5673134    -3.2309446
H           2.7724572     5.1550608    -3.7875732
C           1.8034061     3.2388452    -3.5838060
H           2.3353858     2.7900894    -4.4185546
C           0.8749410     2.4826471    -2.8666284
H           0.6847062     1.4486822    -3.1433630
C           0.1761142     3.0532650    -1.7954443
C           0.4183441     4.3884411    -1.4508321
H          -0.1351859     4.8386939    -0.6313791
C           1.3535962     5.1398067    -2.1627189
H           1.5369695     6.1746713    -1.8860751
O          -2.0803306     2.4958198    -1.3101983
29
457_C12H15NO_3-16-23-24 (-90,) energy =    -596.3041871
C           0.8513114     1.1831168     0.3396283
H           1.5274615     1.8038398    -0.2486574
H           0.9123743     1.5261604     1.3849674
N          -0.5173498     1.3760495    -0.1376363
C          -1.5311151     0.5733648     0.5506629
H          -2.4909410     0.7944994     0.0835190
H          -1.5777132     0.8940336     1.6032681
C           1.2546597    -0.2971933     0.2639917
H           1.3160267    -0.5924917    -0.7922041
H           2.2565770    -0.4206953     0.6939949
C          -1.1870925    -0.9202586     0.4786984
H          -1.9218712    -1.4900349     1.0611181
H          -1.2731370    -1.2535358    -0.5641543
C           0.2358736    -1.1858518     0.9935059
H           0.2771117    -0.9715993     2.0719566
H           0.4973031    -2.2442518     0.8741611
C          -0.8972891     2.2063790    -1.1622186
C           2.0447089     4.5784274    -3.2408084
H           2.7658569     5.1865097    -3.7802744
C           1.7021320     3.3110251    -3.7161712
H           2.1540724     2.9305054    -4.6283866
C           0.7738089     2.5307722    -3.0258965
H           0.4979319     1.5499458    -3.4042952
C           0.1857497     3.0095309    -1.8487210
C           0.5265149     4.2841717    -1.3798441
H           0.0613419     4.6671996    -0.4752123
C           1.4532735     5.0639996    -2.0729905
H           1.7103498     6.0527220    -1.7021662
O          -2.0629954     2.3125843    -1.5348651
29
457_C12H15NO_3-16-23-24 (-75,) energy =    -596.3048787
C           0.8345527     1.2182662     0.3877751
H           1.5256251     1.8318002    -0.1903491
H           0.8555246     1.5848122     1.4262993
N          -0.5183891     1.3862537    -0.1423200
C          -1.5454814     0.5786225     0.5211132
H          -2.4898576     0.7757196     0.0137334
H          -1.6334808     0.9175749     1.5650075
C           1.2576972    -0.2589463     0.3577003
H           1.3628166    -0.5737036    -0.6893699
H           2.2443797    -0.3603015     0.8271319
C          -1.1808003    -0.9115181     0.4898964
H          -1.9308850    -1.4807426     1.0530942
H          -1.2213223    -1.2637955    -0.5494139
C           0.2238452    -1.1473029     1.0653816
H           0.2197242    -0.9109883     2.1400617
H           0.5042525    -2.2039820     0.9780650
C          -0.8568662     2.1194137    -1.2532827
C           2.0353446     4.6151044    -3.2496702
H           2.7403475     5.2557888    -3.7725247
C           1.5995915     3.4260009    -3.8387312
H           1.9628408     3.1402881    -4.8223583
C           0.6871790     2.6076584    -3.1732635
H           0.3245226     1.6970893    -3.6419681
C           0.2216578     2.9582893    -1.8999880
C           0.6529082     4.1573588    -1.3184063
H           0.2776247     4.4457834    -0.3397137
C           1.5554972     4.9823986    -1.9912708
H           1.8802426     5.9132455    -1.5338278
O          -1.9866718     2.1090750    -1.7364845
29
457_C12H15NO_3-16-23-24 (-60,) energy =    -596.3058723
C           0.8278478     1.2449679     0.4256155
H           1.5380227     1.8474429    -0.1401217
H           0.8163954     1.6277079     1.4579313
N          -0.5096167     1.4050212    -0.1481882
C          -1.5496931     0.5981890     0.4978382
H          -2.4825390     0.7838466    -0.0340975
H          -1.6604047     0.9504757     1.5347527
C           1.2547323    -0.2323562     0.4298546
H           1.3946016    -0.5605816    -0.6090295
H           2.2266636    -0.3233499     0.9313963
C          -1.1835377    -0.8918744     0.4943188
H          -1.9495548    -1.4562765     1.0407863
H          -1.1924148    -1.2546322    -0.5420189
C           0.2030372    -1.1164752     1.1156515
H           0.1647756    -0.8678055     2.1869230
H           0.4901361    -2.1729113     1.0494357
C          -0.7984532     2.0218601    -1.3436829
C           2.0182929     4.6524274    -3.2685059
H           2.7042411     5.3268321    -3.7741173
C           1.5121521     3.5357365    -3.9383662
H           1.8016711     3.3407703    -4.9675254
C           0.6219801     2.6775802    -3.2948427
H           0.1951591     1.8288848    -3.8209452
C           0.2554182     2.9072513    -1.9625491
C           0.7556262     4.0361832    -1.3000482
H           0.4508320     4.2384282    -0.2764005
C           1.6310890     4.9062147    -1.9516333
H           2.0064839     5.7837773    -1.4319337
O          -1.8803064     1.8849673    -1.9118509
29
457_C12H15NO_3-16-23-24 (-45,) energy =    -596.3064066
C           0.6135490     0.1475103    -1.0265066
H           0.8821857     0.7314579    -1.9059804
H           1.4248555    -0.5735741    -0.8455198
N           0.5119820     1.0334264     0.1379049
C           0.0987619     0.3513652     1.3699933
H           0.0377087     1.1027148     2.1567621
H           0.8864065    -0.3707532     1.6317811
C          -0.7048612    -0.6072530    -1.2691898
H          -1.4701079     0.1162766    -1.5818368
H          -0.5671988    -1.3104011    -2.1006792
C          -1.2372065    -0.3816398     1.1908036
H          -1.4823482    -0.9249612     2.1121121
H          -2.0277745     0.3637977     1.0343321
C          -1.1740783    -1.3427531    -0.0056278
H          -0.4704684    -2.1579441     0.2209779
H          -2.1507722    -1.8111463    -0.1778493
C           0.3622930     2.4035056     0.0761737
C           1.8901629     4.6906571    -3.2392589
H           2.2721674     5.2925939    -4.0595279
C           0.6301840     4.9608351    -2.6989923
H           0.0303244     5.7749306    -3.0969563
C           0.1457078     4.1967934    -1.6393202
H          -0.8161080     4.4188748    -1.1878110
C           0.9011583     3.1333014    -1.1275840
C           2.1693921     2.8749995    -1.6660930
H           2.7798735     2.0786080    -1.2493692
C           2.6628291     3.6535459    -2.7139552
H           3.6524965     3.4529511    -3.1156904
O          -0.1503829     3.0469540     0.9908382
29
457_C12H15NO_3-16-23-24 (-30,) energy =    -596.3057995
C           0.6340368     0.1150659    -1.0391863
H           0.9043048     0.6706723    -1.9361689
H           1.4449150    -0.5987406    -0.8322767
N           0.5304459     1.0379807     0.1001965
C           0.1033370     0.3801472     1.3427985
H           0.0431078     1.1434343     2.1181391
H           0.8888133    -0.3392846     1.6166893
C          -0.6836859    -0.6458756    -1.2694911
H          -1.4452853     0.0690668    -1.6099096
H          -0.5395227    -1.3720897    -2.0799614
C          -1.2351796    -0.3509241     1.1778345
H          -1.4881224    -0.8677602     2.1122649
H          -2.0194559     0.3950091     0.9968050
C          -1.1668451    -1.3449214     0.0091662
H          -0.4689789    -2.1568465     0.2637799
H          -2.1441137    -1.8136138    -0.1591087
C           0.2493025     2.3876234    -0.0272719
C           1.9187570     4.7325207    -3.2355696
H           2.3294397     5.3445906    -4.0342357
C           0.6898794     5.0637469    -2.6590844
H           0.1417657     5.9349069    -3.0077751
C           0.1683603     4.2828976    -1.6302045
H          -0.7725588     4.5404141    -1.1550067
C           0.8579688     3.1500742    -1.1755080
C           2.0941875     2.8280525    -1.7543730
H           2.6631012     1.9825266    -1.3797335
C           2.6239690     3.6197364    -2.7739240
H           3.5905576     3.3698567    -3.2032312
O          -0.4012333     2.9955609     0.8220803
29
457_C12H15NO_3-16-23-24 (-15,) energy =    -596.3035741
C           0.6517455     0.0798453    -1.0210141
H           0.9073923     0.6049605    -1.9401873
H           1.4790168    -0.6058331    -0.7866035
N           0.5276806     1.0477649     0.0821490
C           0.0872384     0.4266261     1.3407081
H           0.0044931     1.2147179     2.0889441
H           0.8824312    -0.2675372     1.6493159
C          -0.6472583    -0.7193127    -1.2304277
H          -1.4204468    -0.0363952    -1.6085360
H          -0.4773486    -1.4740673    -2.0093501
C          -1.2357089    -0.3350749     1.1923283
H          -1.4899533    -0.8162172     2.1453556
H          -2.0303587     0.3878198     0.9702125
C          -1.1313904    -1.3764086     0.0691876
H          -0.4188246    -2.1608128     0.3661359
H          -2.0955798    -1.8739606    -0.0915152
C           0.1518754     2.3701115    -0.1200918
C           1.9542430     4.7946795    -3.2009435
H           2.3893608     5.4242558    -3.9726074
C           0.7676160     5.1769461    -2.5705504
H           0.2755162     6.1047071    -2.8499844
C           0.2123209     4.3699293    -1.5808131
H          -0.7031171     4.6549138    -1.0735638
C           0.8314589     3.1684118    -1.2046980
C           2.0233552     2.7932632    -1.8431703
H           2.5491638     1.8969717    -1.5320326
C           2.5844534     3.6062144    -2.8285495
H           3.5182644     3.3125698    -3.3005963
O          -0.6117815     2.9426228     0.6565638
29
457_C12H15NO_3-16-23-24 (0,) energy =    -596.3002148
C           0.9237000     0.2123251    -0.4942955
H           1.5494084     0.6421981    -1.2750822
H           1.6047395    -0.1230812     0.3077119
N           0.0205432     1.2420706     0.0542064
C          -0.7413425     0.7342331     1.2048104
H          -1.3575494     1.5482541     1.5882970
H          -0.0573822     0.4392733     2.0180387
C           0.1240943    -0.9897023    -1.0042674
H          -0.5077048    -0.6711958    -1.8445579
H           0.8154308    -1.7517643    -1.3854121
C          -1.5987176    -0.4595673     0.7678831
H          -2.1387044    -0.8509210     1.6390212
H          -2.3530428    -0.1064400     0.0523441
C          -0.7506649    -1.5642647     0.1201578
H          -0.0997212    -2.0158654     0.8831210
H          -1.3916720    -2.3679366    -0.2618683
C           0.4136234     2.5797075     0.1295903
C           1.7017769     4.8028326    -3.3434529
H           2.0396308     5.3826306    -4.1983819
C           1.6868106     5.3720852    -2.0681098
H           2.0144324     6.3983603    -1.9254055
C           1.2585798     4.6240716    -0.9747108
H           1.2478123     5.0465379     0.0239733
C           0.8204334     3.2996720    -1.1342201
C           0.8427961     2.7369094    -2.4201926
H           0.4591801     1.7374524    -2.5894683
C           1.2728227     3.4860469    -3.5156397
H           1.2661952     3.0396799    -4.5064474
O           0.2563467     3.2224309     1.1644934
29
457_C12H15NO_3-16-23-24 (15,) energy =    -596.3036199
C           0.9255987     0.2804815    -0.4928733
H           1.5227280     0.7457862    -1.2760088
H           1.6268286    -0.0329296     0.3003314
N          -0.0145904     1.2640478     0.0711980
C          -0.7772598     0.7202231     1.2031277
H          -1.4270863     1.5100136     1.5808353
H          -0.0937397     0.4457346     2.0239722
C           0.1762955    -0.9508590    -1.0108353
H          -0.4645019    -0.6548617    -1.8526958
H           0.9001178    -1.6813955    -1.3932882
C          -1.5810075    -0.5039467     0.7489953
H          -2.1149578    -0.9224769     1.6111453
H          -2.3406278    -0.1773838     0.0263652
C          -0.6797905    -1.5678604     0.1052725
H          -0.0150154    -1.9917628     0.8722982
H          -1.2807928    -2.3986056    -0.2837688
C           0.2757355     2.6233422     0.1188675
C           1.7451183     4.7402283    -3.3410968
H           2.1209220     5.2939599    -4.1974386
C           1.8308244     5.2878899    -2.0587663
H           2.2740465     6.2694188    -1.9135524
C           1.3476020     4.5774197    -0.9628948
H           1.3978375     4.9897506     0.0391761
C           0.7716227     3.3089637    -1.1288822
C           0.6885914     2.7679507    -2.4208941
H           0.1968901     1.8141440    -2.5806505
C           1.1653441     3.4831316    -3.5197858
H           1.0776059     3.0593378    -4.5166473
O           0.0029987     3.2972431     1.1099032
29
457_C12H15NO_3-16-23-24 (30,) energy =    -596.3056855
C           0.9260283     0.3468899    -0.4786631
H           1.5011873     0.8342134    -1.2648866
H           1.6402782     0.0551281     0.3107989
N          -0.0411925     1.2961160     0.0909206
C          -0.8100500     0.7312181     1.2067545
H          -1.4845018     1.5053103     1.5727529
H          -0.1299956     0.4743682     2.0361243
C           0.2161579    -0.9076330    -0.9986857
H          -0.4276485    -0.6315056    -1.8450009
H           0.9641497    -1.6157665    -1.3766910
C          -1.5715590    -0.5162794     0.7434384
H          -2.1024345    -0.9512030     1.5993492
H          -2.3324545    -0.2133813     0.0118143
C          -0.6296829    -1.5510103     0.1102763
H           0.0402157    -1.9534861     0.8843843
H          -1.1998483    -2.4005441    -0.2846103
C           0.1385830     2.6695798     0.0804682
C           1.8098238     4.6830766    -3.3439602
H           2.2271381     5.2129452    -4.1961587
C           1.9648645     5.1969662    -2.0540114
H           2.5033893     6.1281444    -1.8997355
C           1.4229167     4.5209397    -0.9632533
H           1.5135263     4.9181905     0.0424284
C           0.7342804     3.3133125    -1.1443625
C           0.5767535     2.8073480    -2.4428546
H           0.0024964     1.8999161    -2.6037340
C           1.1062162     3.4928679    -3.5366930
H           0.9635862     3.0998092    -4.5397946
O          -0.2610195     3.3793539     1.0015116
29
457_C12H15NO_3-16-23-24 (45,) energy =    -596.3063372
C           0.9367595     0.3958364    -0.4676179
H           1.4859589     0.9047391    -1.2588629
H           1.6684769     0.1177001     0.3102139
N          -0.0449721     1.3135844     0.1200121
C          -0.8135259     0.7280587     1.2236424
H          -1.5034292     1.4897375     1.5864721
H          -0.1316158     0.4793257     2.0537180
C           0.2535556    -0.8736292    -0.9900484
H          -0.3975210    -0.6083680    -1.8342278
H           1.0166245    -1.5629363    -1.3726804
C          -1.5459121    -0.5338096     0.7517719
H          -2.0689109    -0.9859622     1.6036098
H          -2.3115180    -0.2449707     0.0193250
C          -0.5765657    -1.5416010     0.1163175
H           0.1022466    -1.9294314     0.8902523
H          -1.1239806    -2.4042846    -0.2822406
C           0.0122026     2.6895957     0.0306340
C           1.8497614     4.6495104    -3.3365887
H           2.3012706     5.1690355    -4.1776109
C           2.0629597     5.1070678    -2.0337657
H           2.6800042     5.9843312    -1.8588645
C           1.4743112     4.4479463    -0.9563879
H           1.6043942     4.8130341     0.0575164
C           0.6905119     3.3055406    -1.1659116
C           0.4708622     2.8586144    -2.4763097
H          -0.1701813     1.9990169    -2.6519802
C           1.0442287     3.5308561    -3.5564853
H           0.8571457     3.1838062    -4.5692240
O          -0.5148693     3.4198751     0.8677762
29
457_C12H15NO_3-16-23-24 (60,) energy =    -596.3058259
C           0.9626307     0.4428063    -0.4445112
H           1.4921027     0.9688271    -1.2384526
H           1.7059368     0.1777681     0.3262193
N          -0.0321547     1.3353110     0.1533410
C          -0.8049665     0.7350864     1.2444228
H          -1.5091234     1.4875140     1.5993685
H          -0.1250605     0.4938538     2.0778478
C           0.3030460    -0.8390699    -0.9698724
H          -0.3500343    -0.5834160    -1.8153905
H           1.0792282    -1.5138947    -1.3519865
C          -1.5123430    -0.5383317     0.7643755
H          -2.0322703    -1.0034718     1.6111076
H          -2.2784324    -0.2613908     0.0278091
C          -0.5185887    -1.5245711     0.1323005
H           0.1640865    -1.8991598     0.9094829
H          -1.0456827    -2.3981845    -0.2698293
C          -0.0970584     2.6973004    -0.0314824
C           1.8841702     4.6214664    -3.3378350
H           2.3669440     5.1341640    -4.1655156
C           2.1576509     5.0028506    -2.0218971
H           2.8521751     5.8148300    -1.8236409
C           1.5290781     4.3543367    -0.9601301
H           1.7090517     4.6689407     0.0634982
C           0.6460826     3.2941262    -1.2013886
C           0.3648843     2.9252032    -2.5236573
H          -0.3449596     2.1255020    -2.7194057
C           0.9797091     3.5879233    -3.5870815
H           0.7483003     3.2998477    -4.6091427
O          -0.7460779     3.4319248     0.7102291
29
457_C12H15NO_3-16-23-24 (75,) energy =    -596.3048297
C           0.9895668     0.4949556    -0.4192929
H           1.5053444     1.0343831    -1.2137645
H           1.7366209     0.2541117     0.3549724
N          -0.0311949     1.3612257     0.1697653
C          -0.8093318     0.7473199     1.2484728
H          -1.5373397     1.4856814     1.5847783
H          -0.1357969     0.5262086     2.0919977
C           0.3674318    -0.8063125    -0.9450702
H          -0.2820129    -0.5695673    -1.7987702
H           1.1640204    -1.4634014    -1.3159956
C          -1.4780274    -0.5460959     0.7652691
H          -1.9965999    -1.0216630     1.6070586
H          -2.2414405    -0.2922395     0.0176953
C          -0.4494897    -1.5077132     0.1507085
H           0.2328969    -1.8600836     0.9385622
H          -0.9475067    -2.3973064    -0.2534631
C          -0.2130347     2.6925062    -0.1146757
C           1.9105780     4.5866980    -3.3526941
H           2.4286557     5.0905506    -4.1642477
C           2.2480824     4.8646430    -2.0261518
H           3.0281987     5.5874790    -1.8025389
C           1.5773292     4.2255173    -0.9837495
H           1.8194939     4.4607679     0.0488602
C           0.5791309     3.2827730    -1.2588322
C           0.2360955     3.0160647    -2.5904947
H          -0.5543293     2.3027798    -2.8105462
C           0.8992163     3.6661601    -3.6325300
H           0.6225768     3.4560372    -4.6623378
O          -0.9838572     3.4071390     0.5215554
29
457_C12H15NO_3-16-23-24 (90,) energy =    -596.3041905
C           1.0168982     0.5525256    -0.3780270
H           1.5246173     1.0989061    -1.1731533
H           1.7614457     0.3428326     0.4068957
N          -0.0360696     1.3943247     0.1884790
C          -0.8201877     0.7691124     1.2561525
H          -1.5760530     1.4902911     1.5675844
H          -0.1562802     0.5752025     2.1133730
C           0.4389602    -0.7717574    -0.8989254
H          -0.2032462    -0.5605518    -1.7646635
H           1.2590770    -1.4098301    -1.2514045
C          -1.4436806    -0.5477199     0.7750282
H          -1.9651163    -1.0290602     1.6117674
H          -2.1990412    -0.3230679     0.0101566
C          -0.3757824    -1.4850820     0.1907417
H           0.3024023    -1.8076944     0.9948756
H          -0.8393769    -2.3939127    -0.2116092
C          -0.3204898     2.6824674    -0.1900649
C           1.9281499     4.5591233    -3.3564751
H           2.4796573     5.0542562    -4.1511593
C           2.3341301     4.7013481    -2.0280556
H           3.2014503     5.3096199    -1.7852928
C           1.6250072     4.0683158    -1.0066189
H           1.9351756     4.1895267     0.0279303
C           0.5065384     3.2811588    -1.3067053
C           0.0984777     3.1474852    -2.6395168
H          -0.7788119     2.5511153    -2.8767513
C           0.8080001     3.7828732    -3.6595797
H           0.4828203     3.6743340    -4.6909168
O          -1.2064488     3.3502874     0.3372666
29
457_C12H15NO_3-16-23-24 (105,) energy =    -596.3045661
C           1.0407011     0.5841107    -0.3331241
H           1.5563342     1.1253115    -1.1264234
H           1.7682219     0.4102087     0.4756784
N          -0.0491958     1.4106980     0.1846588
C          -0.8574486     0.7818274     1.2329241
H          -1.6424354     1.4881640     1.5030415
H          -0.2187757     0.6183789     2.1149724
C           0.5125362    -0.7651352    -0.8450101
H          -0.1044928    -0.5862917    -1.7359855
H           1.3601009    -1.3880403    -1.1576250
C          -1.4325849    -0.5580408     0.7552948
H          -1.9728710    -1.0359422     1.5820595
H          -2.1645228    -0.3656355    -0.0404469
C          -0.3212503    -1.4787029     0.2292910
H           0.3355809    -1.7668021     1.0637996
H          -0.7459317    -2.4075720    -0.1702476
C          -0.4098823     2.6491873    -0.2871654
C           1.9584879     4.5442867    -3.3532977
H           2.5405872     5.0395009    -4.1258174
C           2.4161605     4.5276995    -2.0345817
H           3.3538852     5.0124368    -1.7759007
C           1.6707773     3.8878970    -1.0430512
H           2.0294475     3.8772571    -0.0169157
C           0.4552180     3.2690060    -1.3607921
C          -0.0029047     3.2954445    -2.6835877
H          -0.9546308     2.8322441    -2.9293575
C           0.7481713     3.9263243    -3.6754814
H           0.3855651     3.9397087    -4.6999106
O          -1.3995122     3.2526812     0.1206730
29
457_C12H15NO_3-16-23-24 (120,) energy =    -596.3055122
C           1.0731779     0.6139292    -0.2861698
H           1.6040309     1.1402362    -1.0789657
H           1.7829247     0.4581518     0.5412547
N          -0.0307694     1.4459354     0.1948591
C          -0.8522817     0.8258067     1.2388497
H          -1.6468073     1.5291449     1.4874245
H          -0.2222554     0.6793674     2.1295902
C           0.5606359    -0.7468158    -0.7855157
H          -0.0396976    -0.5852579    -1.6910846
H           1.4171753    -1.3701999    -1.0720298
C          -1.4147648    -0.5245415     0.7755375
H          -1.9656958    -0.9912973     1.6017132
H          -2.1351369    -0.3478776    -0.0341480
C          -0.2908331    -1.4484021     0.2827356
H           0.3509667    -1.7242825     1.1329195
H          -0.7055121    -2.3834520    -0.1130035
C          -0.4621570     2.6185281    -0.3796304
C           1.9507520     4.5985124    -3.3519857
H           2.5430227     5.1148996    -4.1026588
C           2.4525527     4.4281065    -2.0604467
H           3.4337519     4.8165604    -1.8006359
C           1.6954106     3.7578136    -1.0984361
H           2.0878046     3.6241759    -0.0934912
C           0.4222784     3.2675796    -1.4166528
C          -0.0820384     3.4552089    -2.7094995
H          -1.0801711     3.0984728    -2.9465292
C           0.6828982     4.1089173    -3.6747844
H           0.2864062     4.2433003    -4.6776634
O          -1.5310086     3.1470265    -0.0797163
29
457_C12H15NO_3-16-23-24 (135,) energy =    -596.3062723
C           1.1131610     0.5966954    -0.2392942
H           1.6629343     1.1019358    -1.0325465
H           1.8036360     0.4564711     0.6062531
N           0.0026379     1.4450320     0.2026138
C          -0.8412023     0.8373537     1.2376739
H          -1.6374957     1.5446494     1.4678595
H          -0.2225668     0.6976342     2.1368477
C           0.6073083    -0.7724661    -0.7248243
H           0.0320067    -0.6261686    -1.6491282
H           1.4689816    -1.4036353    -0.9774201
C          -1.4049602    -0.5149389     0.7818773
H          -1.9803692    -0.9655134     1.6003677
H          -2.1030218    -0.3425285    -0.0478032
C          -0.2747889    -1.4527533     0.3321034
H           0.3437694    -1.7182721     1.2026536
H          -0.6838578    -2.3920825    -0.0593800
C          -0.4923665     2.5303516    -0.4874372
C           1.9396696     4.6629735    -3.3330912
H           2.5337437     5.2204918    -4.0523237
C           2.4684803     4.3550234    -2.0783961
H           3.4711519     4.6803202    -1.8139225
C           1.7090459     3.6315629    -1.1577758
H           2.1199463     3.4002742    -0.1786186
C           0.4080424     3.2216754    -1.4796921
C          -0.1251585     3.5574415    -2.7309227
H          -1.1469468     3.2705538    -2.9596177
C           0.6412197     4.2618356    -3.6576175
H           0.2224709     4.5072792    -4.6299266
O          -1.6263142     2.9672383    -0.2964795
29
457_C12H15NO_3-16-23-24 (150,) energy =    -596.3062319
C           1.1571222     0.5594186    -0.2053681
H           1.7263894     1.0342417    -1.0035320
H           1.8300161     0.4370294     0.6563283
N           0.0478589     1.4343013     0.1948271
C          -0.8173454     0.8507297     1.2279987
H          -1.6106477     1.5675918     1.4379253
H          -0.2076131     0.7235179     2.1345923
C           0.6469648    -0.8173565    -0.6657939
H           0.0921422    -0.6885466    -1.6052348
H           1.5075052    -1.4622247    -0.8860711
C          -1.3911167    -0.5044902     0.7944934
H          -1.9854870    -0.9292770     1.6133170
H          -2.0727638    -0.3410537    -0.0501184
C          -0.2636328    -1.4646652     0.3874254
H           0.3341938    -1.7191582     1.2756066
H          -0.6757536    -2.4072660     0.0070700
C          -0.4939746     2.4187793    -0.6098722
C           1.9349781     4.7481553    -3.2995028
H           2.5247716     5.3590002    -3.9778448
C           2.4866994     4.3082133    -2.0951513
H           3.5021357     4.5867173    -1.8261374
C           1.7322899     3.5179974    -1.2270179
H           2.1574676     3.2022396    -0.2787435
C           0.4159631     3.1615169    -1.5540625
C          -0.1422411     3.6415525    -2.7469345
H          -1.1780149     3.4042568    -2.9674254
C           0.6168436     4.4150458    -3.6220867
H           0.1774764     4.7689080    -4.5508886
O          -1.6738805     2.7556374    -0.5199166
29
457_C12H15NO_3-16-23-24 (165,) energy =    -596.3045787
C           1.1629487     0.5443666    -0.1839748
H           1.7497228     0.9695334    -0.9973198
H           1.8204817     0.4593606     0.6935943
N           0.0572636     1.4539346     0.1539688
C          -0.8356596     0.9172249     1.1908594
H          -1.6262166     1.6482128     1.3589980
H          -0.2413608     0.8240499     2.1115132
C           0.6481906    -0.8489650    -0.5875727
H           0.1151028    -0.7609287    -1.5442088
H           1.5076250    -1.5102169    -0.7585567
C          -1.4170827    -0.4499027     0.8087369
H          -2.0338391    -0.8292035     1.6333871
H          -2.0777835    -0.3174862    -0.0571820
C          -0.2912953    -1.4389211     0.4734286
H           0.2839618    -1.6575408     1.3857863
H          -0.7040517    -2.3943633     0.1273014
C          -0.5004018     2.3366335    -0.7581689
C           1.9164077     4.8640546    -3.2792618
H           2.4991540     5.5290855    -3.9111964
C           2.4950359     4.2886170    -2.1470929
H           3.5244828     4.5171768    -1.8843885
C           1.7489127     3.4323177    -1.3366104
H           2.1955456     3.0323435    -0.4321248
C           0.4163525     3.1292870    -1.6563118
C          -0.1690602     3.7552945    -2.7668823
H          -1.2175905     3.5651443    -2.9702145
C           0.5783720     4.6003973    -3.5829643
H           0.1144007     5.0648132    -4.4489724
O          -1.7059887     2.5821063    -0.7602174
29
457_C12H15NO_3-16-23-24 (180,) energy =    -596.3013606
C           1.0043352     0.8682098     0.3843042
H           1.7982944     1.4657727    -0.0622562
H           1.0404865     1.0552926     1.4719386
N          -0.3054729     1.3103541    -0.1268211
C          -1.4181562     0.6175831     0.5372466
H          -2.3506509     1.0155322     0.1358521
H          -1.4135994     0.8374794     1.6179849
C           1.2068002    -0.6281126     0.1290675
H           1.2422898    -0.8073219    -0.9541959
H           2.1735078    -0.9404747     0.5435350
C          -1.3016557    -0.8927861     0.3001592
H          -2.1155904    -1.4029144     0.8301043
H          -1.4391517    -1.0917969    -0.7709377
C           0.0607207    -1.4371757     0.7550611
H           0.1314881    -1.3679699     1.8505224
H           0.1552132    -2.4997026     0.5004901
C          -0.5333372     2.6358144    -0.4879539
C           1.8080069     4.6073775    -3.5312324
H           2.3617388     5.1172761    -4.3151860
C           2.0572113     3.2616005    -3.2591321
H           2.7932277     2.7142738    -3.8420278
C           1.3458495     2.6039850    -2.2553027
H           1.5084571     1.5423227    -2.1090291
C           0.3931668     3.2912554    -1.4856984
C           0.1125202     4.6280154    -1.8098341
H          -0.6707280     5.1330075    -1.2551894
C           0.8236860     5.2863276    -2.8093854
H           0.6010412     6.3257988    -3.0349095
O          -1.5621990     3.2153175    -0.1490565
