29
457_C12H15NO_0-3-16-23 (-165,) energy =    -596.3059860
C           1.0569390    -0.7493776    -0.6924286
H           1.4108411    -1.0473388    -1.6791598
H           1.8705100    -0.8969664     0.0346609
N           0.7603633     0.6853690    -0.7453054
C           0.2345907     1.2432039     0.5022580
H          -0.0054267     2.2960833     0.3544365
H           1.0136753     1.1847305     1.2786271
C          -0.1690286    -1.5665989    -0.2655629
H          -0.9283842    -1.4999949    -1.0555827
H           0.1101722    -2.6236892    -0.1721788
C          -1.0126925     0.4715150     0.9663837
H          -1.3379817     0.8683758     1.9365994
H          -1.8258119     0.6571885     0.2516349
C          -0.7404947    -1.0368936     1.0581235
H          -0.0186382    -1.2263000     1.8668450
H          -1.6586034    -1.5739508     1.3255753
C           0.7478546     1.3145451    -1.9717005
C           0.9443141     5.6051833    -2.2969528
H           1.0036394     6.6846669    -2.4079667
C           1.6889143     4.9622382    -1.3067612
H           2.3382169     5.5377885    -0.6523598
C           1.6067217     3.5770060    -1.1579631
H           2.2004065     3.0787928    -0.3966928
C           0.7865268     2.8207892    -2.0064619
C           0.0656405     3.4713289    -3.0170829
H          -0.5337903     2.8728678    -3.6958150
C           0.1321999     4.8561724    -3.1527996
H          -0.4404981     5.3516854    -3.9321969
O           0.7866296     0.6859656    -3.0286727
29
457_C12H15NO_0-3-16-23 (-150,) energy =    -596.3033560
C           0.9908971    -0.6748812    -0.7536078
H           1.2866328    -0.9828716    -1.7566847
H           1.8841921    -0.6722973    -0.1071738
N           0.4904059     0.6987969    -0.8441225
C           0.0203435     1.2649926     0.4189559
H          -0.3656924     2.2695537     0.2397185
H           0.8589442     1.3518703     1.1304086
C          -0.0649290    -1.6180754    -0.1646052
H          -0.8940031    -1.7075639    -0.8785369
H           0.3663385    -2.6191491    -0.0387642
C          -1.0703143     0.3703396     1.0306028
H          -1.3650418     0.7808250     2.0047635
H          -1.9558564     0.4019975     0.3821183
C          -0.5867106    -1.0801588     1.1765275
H           0.2218460    -1.1180038     1.9221025
H          -1.3951918    -1.7148853     1.5589389
C           0.5591009     1.3662275    -2.0499462
C           1.1170898     5.6316673    -2.2606991
H           1.2723974     6.7041425    -2.3432885
C           1.7312025     4.9138380    -1.2333737
H           2.3745751     5.4230974    -0.5207578
C           1.5248674     3.5381043    -1.1202490
H           2.0173535     2.9835745    -0.3269788
C           0.7130677     2.8654343    -2.0433685
C           0.1225116     3.5901262    -3.0882458
H          -0.4727963     3.0539810    -3.8205689
C           0.3115000     4.9661986    -3.1889896
H          -0.1605006     5.5198618    -3.9962116
O           0.6078717     0.7632688    -3.1206373
29
457_C12H15NO_0-3-16-23 (-135,) energy =    -596.2988007
C           0.9511462    -0.5937651    -0.7754499
H           1.2376036    -0.9261748    -1.7741325
H           1.8678503    -0.4362066    -0.1810789
N           0.2607450     0.6913795    -0.9154167
C          -0.1859062     1.2699272     0.3511735
H          -0.6831415     2.2219347     0.1532722
H           0.6720344     1.4742997     1.0152092
C           0.0579401    -1.6266270    -0.0786299
H          -0.7816927    -1.8679624    -0.7430283
H           0.6237299    -2.5527799     0.0832212
C          -1.1382470     0.2931740     1.0579535
H          -1.4396454     0.7185654     2.0235843
H          -2.0459588     0.1833432     0.4504013
C          -0.4735753    -1.0780192     1.2548504
H           0.3625137    -0.9735926     1.9627443
H          -1.1803672    -1.7839866     1.7073407
C           0.3678284     1.3925485    -2.1065860
C           1.2622699     5.6028217    -2.2340434
H           1.5048959     6.6603981    -2.2958150
C           1.7899145     4.8237895    -1.2034131
H           2.4530637     5.2701840    -0.4672073
C           1.4705415     3.4678704    -1.1160674
H           1.8961456     2.8667247    -0.3187900
C           0.6338118     2.8750464    -2.0707034
C           0.1284392     3.6602329    -3.1172317
H          -0.4901299     3.1834635    -3.8710376
C           0.4292504     5.0176001    -3.1920014
H           0.0232235     5.6189013    -4.0010066
O           0.3849012     0.8094448    -3.1873582
29
457_C12H15NO_0-3-16-23 (-120,) energy =    -596.2929704
C           0.9318124    -0.4966523    -0.7928817
H           1.2301454    -0.8549935    -1.7799786
H           1.8402944    -0.1887515    -0.2444688
N           0.0646344     0.6717293    -0.9824009
C          -0.3975660     1.2694439     0.2718106
H          -1.0055458     2.1487540     0.0438471
H           0.4457685     1.6043646     0.9008983
C           0.2003728    -1.5901127    -0.0063296
H          -0.6147447    -1.9804366    -0.6288606
H           0.8879780    -2.4218783     0.1927685
C          -1.2085419     0.2280871     1.0562089
H          -1.5407676     0.6666040     2.0056865
H          -2.1066431    -0.0290027     0.4800606
C          -0.3697170    -1.0346941     1.3087183
H           0.4604092    -0.7838747     1.9861956
H          -0.9699839    -1.7978515     1.8185768
C           0.1977433     1.4117510    -2.1598978
C           1.4036644     5.5440276    -2.1990898
H           1.7254959     6.5813629    -2.2375460
C           1.8755947     4.7035743    -1.1901151
H           2.5739890     5.0808632    -0.4479167
C           1.4536128     3.3744213    -1.1310650
H           1.8365336     2.7251452    -0.3505437
C           0.5714601     2.8690196    -2.0950963
C           0.1215588     3.7148954    -3.1200628
H          -0.5358494     3.3051255    -3.8804577
C           0.5239363     5.0466759    -3.1652358
H           0.1607726     5.6962920    -3.9570510
O           0.1598781     0.8564525    -3.2519578
29
457_C12H15NO_0-3-16-23 (-105,) energy =    -596.2872902
C           1.2393355     0.0261704    -0.3633353
H           1.8514588     0.2015856    -1.2562990
H           1.9357140    -0.1374959     0.4719636
N           0.4971764     1.2734453    -0.0624867
C          -0.4252471     1.0802946     1.0825488
H          -1.0153284     1.9957928     1.1971380
H           0.2171290     1.0009774     1.9718050
C           0.3504443    -1.2137741    -0.5380323
H          -0.2818382    -1.0888756    -1.4250973
H           0.9901690    -2.0890915    -0.7127839
C          -1.3409835    -0.1520955     1.0033404
H          -1.8802618    -0.2556700     1.9545351
H          -2.0850353     0.0059443     0.2165257
C          -0.5296956    -1.4210502     0.7030850
H           0.1125236    -1.6600984     1.5649208
H          -1.1978930    -2.2796214     0.5632797
C          -0.1502247     1.8292919    -1.2231340
C           1.6742112     5.3164667    -2.9362479
H           2.1251165     6.2025245    -3.3757059
C           2.2189902     4.7578524    -1.7784530
H           3.0920004     5.2090375    -1.3146157
C           1.6403696     3.6224932    -1.2114820
H           2.0408782     3.1820832    -0.3054605
C           0.5106659     3.0379032    -1.8025569
C          -0.0309259     3.6054268    -2.9683249
H          -0.9059189     3.1413323    -3.4116300
C           0.5467435     4.7389505    -3.5303865
H           0.1227561     5.1748782    -4.4309406
O          -1.2144594     1.4197363    -1.6619467
29
457_C12H15NO_0-3-16-23 (-90,) energy =    -596.2923096
C           1.2176234     0.2028445    -0.3116825
H           1.8278141     0.4847929    -1.1775248
H           1.9089205     0.0322577     0.5259145
N           0.3667607     1.3625296     0.0497132
C          -0.5436364     1.0176418     1.1684801
H          -1.2088181     1.8702207     1.3318555
H           0.0997360     0.9292106     2.0558023
C           0.4257785    -1.0816424    -0.5935271
H          -0.2050935    -0.9355276    -1.4799175
H           1.1320362    -1.8888669    -0.8283084
C          -1.3563187    -0.2753505     0.9930175
H          -1.8921605    -0.4883278     1.9275760
H          -2.1049798    -0.1152412     0.2115202
C          -0.4476277    -1.4524809     0.6127414
H           0.2038326    -1.7081297     1.4625490
H          -1.0456622    -2.3462053     0.3966381
C          -0.2940092     1.9622569    -1.0626359
C           1.7782011     5.1624141    -3.0450788
H           2.2870679     5.9797951    -3.5494616
C           2.3060838     4.6330678    -1.8658418
H           3.2229361     5.0406617    -1.4484719
C           1.6531186     3.5860752    -1.2153795
H           2.0404712     3.1808062    -0.2870784
C           0.4638414     3.0618517    -1.7420911
C          -0.0612283     3.6002711    -2.9276742
H          -0.9861194     3.1881151    -3.3179787
C           0.5915360     4.6450987    -3.5745699
H           0.1786567     5.0584639    -4.4908269
O          -1.4632625     1.7408549    -1.3473873
29
457_C12H15NO_0-3-16-23 (-75,) energy =    -596.2983659
C           1.1994093     0.3516940    -0.2648541
H           1.7981548     0.7191268    -1.1041768
H           1.8886333     0.1779991     0.5734882
N           0.2606373     1.4214975     0.1436570
C          -0.6241966     0.9648830     1.2380302
H          -1.3340593     1.7676643     1.4493041
H           0.0218930     0.8452735     2.1193424
C           0.4930259    -0.9610434    -0.6329745
H          -0.1230461    -0.8015454    -1.5282912
H           1.2513802    -1.7108755    -0.8937655
C          -1.3652666    -0.3508270     0.9553802
H          -1.9157496    -0.6538939     1.8555684
H          -2.1013838    -0.1707533     0.1651969
C          -0.3871959    -1.4524300     0.5241954
H           0.2565779    -1.7287926     1.3731447
H          -0.9312171    -2.3599976     0.2353101
C          -0.4026902     2.1001812    -0.8995436
C           1.8487608     5.0080640    -3.1299067
H           2.4002562     5.7545517    -3.6955762
C           2.3641622     4.5217272    -1.9268483
H           3.3131287     4.8943255    -1.5505037
C           1.6578605     3.5636163    -1.1993904
H           2.0405335     3.1986040    -0.2520525
C           0.4256622     3.0877400    -1.6697092
C          -0.0896228     3.5878259    -2.8749783
H          -1.0522370     3.2221284    -3.2177469
C           0.6187173     4.5403909    -3.6021778
H           0.2136639     4.9213124    -4.5358422
O          -1.6177863     2.0548798    -1.0544324
29
457_C12H15NO_0-3-16-23 (-60,) energy =    -596.3031771
C           1.1859190     0.4586214    -0.2387287
H           1.7708572     0.8952102    -1.0514530
H           1.8737059     0.2773243     0.5991644
N           0.1805623     1.4436490     0.2088530
C          -0.6860974     0.9035544     1.2733330
H          -1.4216825     1.6688090     1.5255580
H          -0.0414180     0.7427627     2.1489761
C           0.5479304    -0.8671112    -0.6827576
H          -0.0462960    -0.6907444    -1.5899497
H           1.3444529    -1.5725366    -0.9532821
C          -1.3769127    -0.4112861     0.8850052
H          -1.9480128    -0.7896392     1.7425497
H          -2.0935002    -0.2008911     0.0829543
C          -0.3473942    -1.4509844     0.4192600
H           0.2805254    -1.7524206     1.2714313
H          -0.8488828    -2.3592721     0.0634630
C          -0.4694376     2.2264432    -0.7492255
C           1.8771334     4.8639700    -3.2104073
H           2.4508657     5.5450889    -3.8334532
C           2.3911245     4.4374221    -1.9842616
H           3.3607404     4.7933123    -1.6462925
C           1.6575681     3.5602859    -1.1850277
H           2.0442391     3.2444992    -0.2210920
C           0.3984406     3.1077994    -1.6042169
C          -0.1186429     3.5554650    -2.8281374
H          -1.1063938     3.2198594    -3.1276940
C           0.6193404     4.4222246    -3.6304523
H           0.2134391     4.7588557    -4.5806256
O          -1.6916947     2.3321641    -0.7950530
29
457_C12H15NO_0-3-16-23 (-45,) energy =    -596.3056828
C           1.1711419     0.5321576    -0.2120623
H           1.7487276     1.0132439    -1.0021457
H           1.8522937     0.3525051     0.6319826
N           0.1134719     1.4486725     0.2444550
C          -0.7424991     0.8581617     1.2850683
H          -1.5018965     1.5943545     1.5490755
H          -0.1057211     0.6807683     2.1634309
C           0.5913939    -0.8037853    -0.7063690
H           0.0155278    -0.6202571    -1.6239167
H           1.4175370    -1.4750399    -0.9746718
C          -1.3854850    -0.4589270     0.8302800
H          -1.9684568    -0.8868792     1.6557121
H          -2.0878542    -0.2380896     0.0170588
C          -0.3135349    -1.4499599     0.3529305
H           0.3010999    -1.7624135     1.2106426
H          -0.7783724    -2.3596292    -0.0464580
C          -0.4942865     2.3509180    -0.6168788
C           1.8956630     4.7553952    -3.2711368
H           2.4785235     5.3804047    -3.9425810
C           2.4187764     4.3826804    -2.0314565
H           3.4049868     4.7260436    -1.7305960
C           1.6735214     3.5751446    -1.1716568
H           2.0726018     3.3004239    -0.1995823
C           0.3931144     3.1401877    -1.5418033
C          -0.1353182     3.5409041    -2.7764072
H          -1.1421561     3.2299674    -3.0367309
C           0.6160076     4.3333567    -3.6414569
H           0.2016407     4.6296454    -4.6013571
O          -1.6975324     2.5967189    -0.5663743
29
457_C12H15NO_0-3-16-23 (-30,) energy =    -596.3064114
C           1.1381572     0.5733840    -0.2153703
H           1.6999238     1.0686573    -1.0065423
H           1.8189967     0.4316642     0.6372293
N           0.0316854     1.4357882     0.2147133
C          -0.8210488     0.8339930     1.2471499
H          -1.6124761     1.5465792     1.4777704
H          -0.2024154     0.6898967     2.1452416
C           0.6237683    -0.7932700    -0.6999621
H           0.0564555    -0.6444901    -1.6289007
H           1.4815177    -1.4327529    -0.9451820
C          -1.3967262    -0.5136067     0.7923443
H          -1.9809705    -0.9566364     1.6087255
H          -2.0883314    -0.3348318    -0.0411472
C          -0.2725047    -1.4630165     0.3517186
H           0.3370383    -1.7337928     1.2270305
H          -0.6878742    -2.3987820    -0.0417519
C          -0.5010644     2.4607093    -0.5409242
C           1.9215881     4.7035436    -3.3077218
H           2.5119378     5.2897722    -4.0069663
C           2.4612606     4.3349977    -2.0741760
H           3.4681504     4.6429903    -1.8051725
C           1.7065053     3.5753056    -1.1793737
H           2.1231334     3.3043032    -0.2132109
C           0.4005086     3.1851143    -1.5070484
C          -0.1445239     3.5863224    -2.7341170
H          -1.1712500     3.3174715    -2.9616853
C           0.6162391     4.3278861    -3.6355364
H           0.1882073     4.6227623    -4.5898870
O          -1.6656676     2.8337572    -0.4068839
29
457_C12H15NO_0-3-16-23 (-15,) energy =    -596.3061225
C           1.0921194     0.5851376    -0.2543250
H           1.6267424     1.0718949    -1.0687192
H           1.7832846     0.5087522     0.5998869
N          -0.0550109     1.4062193     0.1371951
C          -0.8967341     0.8159999     1.1832270
H          -1.7218538     1.5045330     1.3628706
H          -0.2963557     0.7403225     2.1031621
C           0.6442365    -0.8230837    -0.6811311
H           0.0754111    -0.7407625    -1.6171611
H           1.5327251    -1.4306652    -0.8954588
C          -1.3984369    -0.5764505     0.7809067
H          -1.9706561    -1.0099309     1.6107633
H          -2.0874206    -0.4729589    -0.0677655
C          -0.2254055    -1.4889504     0.3944189
H           0.3884806    -1.6882262     1.2856380
H          -0.5907392    -2.4611021     0.0417214
C          -0.4957433     2.5452057    -0.4982488
C           1.9451247     4.6851060    -3.3326838
H           2.5393817     5.2477882    -4.0477212
C           2.5017895     4.2953104    -2.1136089
H           3.5267675     4.5630389    -1.8711028
C           1.7415106     3.5649256    -1.1988644
H           2.1757313     3.2764265    -0.2453503
C           0.4132369     3.2259002    -1.4912245
C          -0.1480217     3.6507772    -2.7029411
H          -1.1907396     3.4256929    -2.9039560
C           0.6177749     4.3611325    -3.6251139
H           0.1760564     4.6731523    -4.5677136
O          -1.6049434     3.0295143    -0.2755410
29
457_C12H15NO_0-3-16-23 (0,) energy =    -596.3052970
C           1.0468329     0.5939043    -0.2825514
H           1.5659249     1.0705674    -1.1129503
H           1.7358474     0.5778442     0.5779807
N          -0.1385716     1.3786125     0.0634917
C          -0.9747094     0.7975960     1.1198062
H          -1.8296509     1.4595544     1.2542145
H          -0.3976698     0.7857292     2.0587284
C           0.6630630    -0.8464801    -0.6579210
H           0.1021679    -0.8249513    -1.6018687
H           1.5792417    -1.4227626    -0.8384767
C          -1.4064445    -0.6297636     0.7649288
H          -1.9736340    -1.0531692     1.6032312
H          -2.0841081    -0.5926759    -0.0983482
C          -0.1898536    -1.5055443     0.4342950
H           0.4196052    -1.6377715     1.3408661
H          -0.5067899    -2.5073096     0.1199997
C          -0.4817644     2.6114829    -0.4424932
C           1.9415676     4.6863825    -3.3421637
H           2.5314187     5.2334142    -4.0727788
C           2.5223988     4.2718229    -2.1429709
H           3.5627011     4.5041674    -1.9310967
C           1.7673408     3.5608316    -1.2084538
H           2.2235939     3.2525107    -0.2714210
C           0.4206688     3.2663167    -1.4606992
C          -0.1637644     3.7163342    -2.6523559
H          -1.2188695     3.5271378    -2.8239653
C           0.5961105     4.4066304    -3.5945828
H           0.1354746     4.7380102    -4.5214217
O          -1.5263470     3.1790243    -0.1249292
29
457_C12H15NO_0-3-16-23 (15,) energy =    -596.3060552
C           0.9659588     0.4687370    -0.4351876
H           1.5091336     0.9940895    -1.2193984
H           1.7055543     0.1642134     0.3242256
N           0.0060552     1.3765486     0.1949484
C          -0.7568607     0.7731042     1.2912880
H          -1.4328641     1.5350365     1.6785065
H          -0.0627244     0.4959602     2.1011379
C           0.2633724    -0.7829990    -0.9779784
H          -0.3981049    -0.4927150    -1.8058040
H           1.0140929    -1.4701098    -1.3882251
C          -1.5085821    -0.4713822     0.8009492
H          -2.0216496    -0.9414082     1.6492137
H          -2.2834290    -0.1579970     0.0885384
C          -0.5562679    -1.4698109     0.1253052
H           0.1314149    -1.8810441     0.8792037
H          -1.1157838    -2.3190924    -0.2850797
C          -0.0894563     2.7345480    -0.0079470
C           1.8053734     4.6938192    -3.3465210
H           2.2694807     5.2141071    -4.1801420
C           1.9471055     5.1857387    -2.0464876
H           2.5202154     6.0913221    -1.8664449
C           1.3418394     4.5257429    -0.9789337
H           1.4159358     4.9188837     0.0301572
C           0.6145968     3.3471897    -1.1930151
C           0.4658101     2.8663235    -2.5011760
H          -0.1317820     1.9775025    -2.6855458
C           1.0546358     3.5392677    -3.5729516
H           0.9222779     3.1636705    -4.5841455
O          -0.7362252     3.4620532     0.7445819
29
457_C12H15NO_0-3-16-23 (30,) energy =    -596.3063281
C           0.9466289     0.4697750    -0.4520703
H           1.4898038     0.9775548    -1.2482370
H           1.6787264     0.2233519     0.3361526
N          -0.0623257     1.3742514     0.1107988
C          -0.8247566     0.7889277     1.2190561
H          -1.5360383     1.5391983     1.5640316
H          -0.1441207     0.5713819     2.0590077
C           0.2987416    -0.8247911    -0.9571986
H          -0.3514731    -0.5903830    -1.8111050
H           1.0816010    -1.5017514    -1.3214401
C          -1.5226204    -0.4980266     0.7634069
H          -2.0425430    -0.9474524     1.6185449
H          -2.2881067    -0.2404170     0.0192707
C          -0.5240732    -1.4933236     0.1541723
H           0.1573675    -1.8506666     0.9403607
H          -1.0471637    -2.3759736    -0.2331831
C          -0.0159062     2.7512652     0.0181041
C           1.7862215     4.7112568    -3.3679011
H           2.2285201     5.2305742    -4.2139281
C           1.9855925     5.1891794    -2.0701578
H           2.5824875     6.0820389    -1.9045301
C           1.4088613     4.5301761    -0.9863887
H           1.5283029     4.9097453     0.0234919
C           0.6508368     3.3683623    -1.1840117
C           0.4451172     2.9007367    -2.4894577
H          -0.1765369     2.0252515    -2.6558426
C           1.0064858     3.5722970    -3.5763225
H           0.8300485     3.2088392    -4.5852087
O          -0.5481370     3.4791787     0.8538394
29
457_C12H15NO_0-3-16-23 (45,) energy =    -596.3056684
C           0.9407741     0.4511571    -0.4415309
H           1.5045956     0.9352893    -1.2394491
H           1.6475345     0.2477266     0.3816998
N          -0.1053061     1.3668212     0.0425065
C          -0.8883039     0.8067539     1.1527556
H          -1.6249638     1.5529108     1.4520380
H          -0.2344175     0.6330906     2.0238223
C           0.3296014    -0.8695021    -0.9200614
H          -0.2929973    -0.6759367    -1.8041311
H           1.1345559    -1.5467329    -1.2317553
C          -1.5528476    -0.5048306     0.7209304
H          -2.0982979    -0.9279825     1.5734856
H          -2.2937947    -0.2855675    -0.0594616
C          -0.5222476    -1.5092712     0.1857102
H           0.1353872    -1.8279939     1.0078261
H          -1.0208612    -2.4123479    -0.1865586
C           0.0853217     2.7420353     0.0575465
C           1.7370766     4.7421610    -3.3782918
H           2.1433579     5.2698842    -4.2371229
C           1.9875923     5.2106171    -2.0857793
H           2.5887084     6.1036525    -1.9372671
C           1.4583758     4.5398533    -0.9854305
H           1.6199925     4.9071090     0.0230619
C           0.6931223     3.3792612    -1.1628513
C           0.4369727     2.9202219    -2.4625536
H          -0.1898378     2.0451502    -2.6077450
C           0.9535681     3.6017704    -3.5649796
H           0.7388923     3.2458428    -4.5691252
O          -0.3155802     3.4455633     0.9808118
29
457_C12H15NO_0-3-16-23 (60,) energy =    -596.3035912
C           0.9581111     0.4129763    -0.4058290
H           1.5659670     0.8645035    -1.1928060
H           1.6185683     0.2390484     0.4614879
N          -0.1100558     1.3576631    -0.0205625
C          -0.9324397     0.8335086     1.0829220
H          -1.6772838     1.5898087     1.3364978
H          -0.3139525     0.6814932     1.9831095
C           0.3632402    -0.9193257    -0.8692161
H          -0.2109796    -0.7521684    -1.7904599
H           1.1782676    -1.6113442    -1.1155992
C          -1.5924408    -0.4833932     0.6629977
H          -2.1827557    -0.8719069     1.5019851
H          -2.2924824    -0.2825829    -0.1590193
C          -0.5493026    -1.5155096     0.2117332
H           0.0625655    -1.8146673     1.0753623
H          -1.0394112    -2.4246860    -0.1570175
C           0.2184854     2.7131232     0.0888021
C           1.6623282     4.7953453    -3.3880990
H           2.0188256     5.3413982    -4.2575721
C           1.9607903     5.2551016    -2.1023507
H           2.5496859     6.1587575    -1.9701486
C           1.4976511     4.5593839    -0.9883626
H           1.7016233     4.9132442     0.0172691
C           0.7444539     3.3875341    -1.1466102
C           0.4420226     2.9356020    -2.4389214
H          -0.1734390     2.0499425    -2.5633988
C           0.8967231     3.6394261    -3.5541960
H           0.6473587     3.2892770    -4.5523185
O          -0.0391184     3.3673175     1.0931068
29
457_C12H15NO_0-3-16-23 (75,) energy =    -596.2996985
C           0.9850544     0.3475438    -0.3393146
H           1.6542132     0.7491797    -1.1060965
H           1.5841864     0.1969763     0.5757111
N          -0.0813253     1.3406755    -0.0737323
C          -0.9676191     0.8734532     1.0105676
H          -1.7041983     1.6565161     1.2055912
H          -0.3994116     0.7312397     1.9441423
C           0.3840657    -0.9863465    -0.7890145
H          -0.1231719    -0.8400725    -1.7519978
H           1.1933205    -1.7086745    -0.9543376
C          -1.6480941    -0.4343925     0.5968126
H          -2.3017167    -0.7723025     1.4104722
H          -2.2885503    -0.2418833    -0.2742235
C          -0.6139092    -1.5147263     0.2504808
H          -0.0682836    -1.7986586     1.1622274
H          -1.1085932    -2.4222340    -0.1162769
C           0.3747724     2.6652638     0.1078354
C           1.5561479     4.8751797    -3.3853197
H           1.8486855     5.4504573    -4.2598719
C           1.9049586     5.3196437    -2.1064306
H           2.4700858     6.2399157    -1.9856863
C           1.5256971     4.5850828    -0.9862912
H           1.7751181     4.9194158     0.0156517
C           0.7991151     3.3941079    -1.1325687
C           0.4481057     2.9557274    -2.4173181
H          -0.1415693     2.0514127    -2.5257634
C           0.8243935     3.6958547    -3.5382048
H           0.5398508     3.3560737    -4.5304695
O           0.2781139     3.2483610     1.1794993
29
457_C12H15NO_0-3-16-23 (90,) energy =    -596.2947126
C           1.0408795     0.2478253    -0.2703620
H           1.7779437     0.5848117    -1.0078312
H           1.5669531     0.1338499     0.6939394
N          -0.0103672     1.2869732    -0.1496987
C          -0.9771012     0.9016290     0.9020771
H          -1.6995061     1.7157120     1.0120879
H          -0.4746456     0.7831841     1.8752263
C           0.4293853    -1.0895187    -0.6950346
H           0.0012143    -0.9782943    -1.6999888
H           1.2227212    -1.8447408    -0.7608461
C          -1.6783001    -0.3997994     0.5046342
H          -2.4003275    -0.6728242     1.2842239
H          -2.2466061    -0.2308999    -0.4196354
C          -0.6621036    -1.5304373     0.2898994
H          -0.1972427    -1.7858286     1.2532705
H          -1.1616424    -2.4382265    -0.0697192
C           0.5460017     2.5835469     0.0800788
C           1.4247097     4.9733435    -3.3773195
H           1.6441151     5.5917322    -4.2438752
C           1.8369194     5.3824610    -2.1049442
H           2.3777992     6.3169305    -1.9823141
C           1.5537905     4.5924919    -0.9949591
H           1.8589693     4.8934139     0.0020680
C           0.8552038     3.3841561    -1.1453006
C           0.4422811     2.9804518    -2.4231254
H          -0.1177980     2.0575739    -2.5267152
C           0.7266959     3.7742654    -3.5341867
H           0.3976429     3.4608193    -4.5213117
O           0.6289852     3.0692665     1.1976634
29
457_C12H15NO_0-3-16-23 (105,) energy =    -596.2904813
C           1.1142053     0.1409860    -0.1852851
H           1.9187401     0.3944326    -0.8860085
H           1.5624935     0.0768535     0.8219929
N           0.1027888     1.2236940    -0.2296199
C          -0.9699583     0.9568416     0.7561832
H          -1.6673784     1.8011437     0.7332031
H          -0.5625277     0.8967163     1.7782537
C           0.4777744    -1.1976896    -0.5668427
H           0.1360981    -1.1418520    -1.6087676
H           1.2378092    -1.9874544    -0.5147977
C          -1.6910754    -0.3440443     0.3955069
H          -2.4867365    -0.5310731     1.1274905
H          -2.1716094    -0.2252561    -0.5846260
C          -0.7081200    -1.5224355     0.3519364
H          -0.3350586    -1.7191538     1.3675432
H          -1.2143390    -2.4367552     0.0189122
C           0.7304180     2.5010475     0.0213475
C           1.2763069     5.0847711    -3.3573308
H           1.4156639     5.7497229    -4.2058324
C           1.7647981     5.4493520    -2.0978957
H           2.2837795     6.3952074    -1.9683902
C           1.5862900     4.5998332    -1.0111348
H           1.9552741     4.8620200    -0.0248307
C           0.9149470     3.3763916    -1.1724811
C           0.4263009     3.0170049    -2.4369873
H          -0.1010590     2.0756959    -2.5430591
C           0.6079038     3.8703707    -3.5250665
H           0.2245508     3.5903750    -4.5025565
O           1.0185468     2.8728792     1.1462992
29
457_C12H15NO_0-3-16-23 (120,) energy =    -596.2890930
C           1.1948712     0.0131094    -0.0595683
H           2.0730027     0.1736176    -0.6956973
H           1.5486777    -0.0261629     0.9851404
N           0.2698267     1.1476820    -0.2624335
C          -0.9319146     1.0273329     0.5892626
H          -1.5623473     1.9070939     0.4142829
H          -0.6569531     1.0274075     1.6586455
C           0.5003045    -1.2994235    -0.4310594
H           0.2656705    -1.2861201    -1.5036246
H           1.1900800    -2.1351115    -0.2584606
C          -1.6952366    -0.2530169     0.2411451
H          -2.5724009    -0.3404870     0.8945291
H          -2.0629656    -0.1772263    -0.7906678
C          -0.7906421    -1.4857840     0.3787697
H          -0.5349531    -1.6302066     1.4385751
H          -1.3207485    -2.3901611     0.0558332
C           0.9412974     2.4097708    -0.0272616
C           1.0920651     5.1696549    -3.3037143
H           1.1366079     5.8763706    -4.1284201
C           1.6635063     5.5005749    -2.0699223
H           2.1507762     6.4626284    -1.9366847
C           1.6073259     4.5973248    -1.0140003
H           2.0433596     4.8317182    -0.0482998
C           0.9786306     3.3518210    -1.1816156
C           0.4079998     3.0256775    -2.4205285
H          -0.0709345     2.0595737    -2.5327709
C           0.4656080     3.9339507    -3.4773334
H           0.0229598     3.6779684    -4.4361518
O           1.4557790     2.6772731     1.0447671
29
457_C12H15NO_0-3-16-23 (135,) energy =    -596.2966985
C           1.3207412    -0.1900066     0.5095548
H           2.3769735    -0.1186797     0.2448414
H           1.2769579    -0.4955984     1.5682075
N           0.7356106     1.1418575     0.3433768
C          -0.7139528     1.2550319     0.5064006
H          -1.0196973     2.2620187     0.2121660
H          -0.9454806     1.1514121     1.5797526
C           0.5791155    -1.2284512    -0.3406848
H           0.7455670    -1.0139190    -1.4053308
H           1.0055515    -2.2194644    -0.1409018
C          -1.5031243     0.1895675    -0.2700368
H          -2.5553209     0.2336644     0.0381902
H          -1.4776225     0.4182155    -1.3432597
C          -0.9252792    -1.2132956    -0.0367152
H          -1.0854724    -1.5067903     1.0113783
H          -1.4530503    -1.9503427    -0.6538915
C           1.5576047     2.1996691    -0.0156216
C           0.5115771     4.9624865    -3.1513793
H           0.2805077     5.6625458    -3.9499378
C           1.3004368     5.3670681    -2.0703895
H           1.6841497     6.3828147    -2.0261677
C           1.6034466     4.4658814    -1.0534722
H           2.2373168     4.7567202    -0.2217568
C           1.1060972     3.1545577    -1.0909012
C           0.3200049     2.7557202    -2.1790863
H          -0.0376473     1.7335805    -2.2387183
C           0.0308050     3.6538441    -3.2078889
H          -0.5666618     3.3283813    -4.0553811
O           2.7164126     2.2674355     0.3871503
29
457_C12H15NO_0-3-16-23 (150,) energy =    -596.3025802
C           1.3072296    -0.2021814     0.5540440
H           2.3721838    -0.1774660     0.3199130
H           1.2195381    -0.3512780     1.6430322
N           0.7440897     1.0964812     0.1790933
C          -0.7027010     1.2334883     0.3494731
H          -1.0121645     2.2147079    -0.0150243
H          -0.9266800     1.2047501     1.4292390
C           0.5802328    -1.3378154    -0.1768131
H           0.7929929    -1.2670874    -1.2521735
H           0.9818984    -2.2983645     0.1692437
C          -1.4804437     0.1084907    -0.3470473
H          -2.5439851     0.1971905    -0.0920829
H          -1.4005211     0.2280972    -1.4358634
C          -0.9355884    -1.2690151     0.0571606
H          -1.1460173    -1.4447418     1.1225731
H          -1.4492633    -2.0619776    -0.4996462
C           1.5999809     2.1198856    -0.1783587
C           0.4696709     5.1089342    -3.0676043
H           0.2154255     5.8671466    -3.8035584
C           1.3097030     5.4255082    -1.9962177
H           1.7106738     6.4306658    -1.8971849
C           1.6429406     4.4502878    -1.0596754
H           2.3174259     4.6727597    -0.2388681
C           1.1229958     3.1523966    -1.1672211
C           0.2872739     2.8407274    -2.2476424
H          -0.0884416     1.8289961    -2.3633578
C          -0.0324128     3.8132078    -3.1964299
H          -0.6696436     3.5561882    -4.0384651
O           2.7775493     2.1284858     0.1753293
29
457_C12H15NO_0-3-16-23 (165,) energy =    -596.3057757
C           1.2812696    -0.1840226     0.5997753
H           2.3510513    -0.2075795     0.3914103
H           1.1618975    -0.1587255     1.6956275
N           0.7435162     1.0479395     0.0168531
C          -0.6997062     1.2247647     0.1941400
H          -1.0089697     2.1643904    -0.2639462
H          -0.9110930     1.3042207     1.2741093
C           0.5537375    -1.4065665     0.0264521
H           0.7956891    -1.4952911    -1.0411898
H           0.9302975    -2.3118033     0.5187773
C          -1.4804950     0.0365009    -0.3811424
H          -2.5485789     0.1682442    -0.1674328
H          -1.3676323     0.0261364    -1.4739066
C          -0.9674128    -1.2881182     0.2034728
H          -1.2121937    -1.3280968     1.2752078
H          -1.4772157    -2.1375173    -0.2670539
C           1.6257954     2.0418792    -0.3521742
C           0.4342438     5.2398521    -2.9803683
H           0.1629407     6.0520770    -3.6495475
C           1.2844596     5.4783877    -1.8972812
H           1.6767496     6.4766182    -1.7224177
C           1.6410082     4.4344698    -1.0465202
H           2.3260126     4.5986514    -0.2206648
C           1.1301995     3.1454628    -1.2508480
C           0.2858601     2.9109862    -2.3446872
H          -0.0826533     1.9070739    -2.5352450
C          -0.0558806     3.9528874    -3.2080548
H          -0.7004228     3.7575989    -4.0610205
O           2.8155206     2.0040340    -0.0432886
29
457_C12H15NO_0-3-16-23 (180,) energy =    -596.3061879
C           1.1110121    -0.8359183    -0.6420530
H           1.5216602    -1.1540207    -1.5997523
H           1.8186167    -1.1116391     0.1533397
N           1.0163076     0.6299100    -0.6647711
C           0.4574094     1.1984527     0.5678417
H           0.3857667     2.2808190     0.4725355
H           1.1551541     0.9833323     1.3904856
C          -0.2525006    -1.4865611    -0.3736944
H          -0.9120480    -1.2824871    -1.2272129
H          -0.1309478    -2.5754724    -0.3128633
C          -0.9222974     0.5978296     0.8875309
H          -1.2731635     0.9966159     1.8480731
H          -1.6350009     0.9313234     0.1207922
C          -0.8748785    -0.9365997     0.9182582
H          -0.2716767    -1.2628712     1.7788017
H          -1.8811814    -1.3464263     1.0678989
C           0.9789973     1.2469761    -1.8988673
C           0.7520282     5.5325373    -2.2819893
H           0.6989699     6.6107744    -2.4070804
C           1.6345502     4.9786268    -1.3530674
H           2.2793556     5.6228546    -0.7612113
C           1.6962892     3.5944504    -1.1860603
H           2.3965772     3.1662251    -0.4739970
C           0.8819223     2.7505288    -1.9541654
C           0.0234810     3.3130381    -2.9080934
H          -0.5705253     2.6523122    -3.5316862
C          -0.0527974     4.6961978    -3.0596819
H          -0.7318645     5.1224185    -3.7932762
O           1.0483419     0.6104959    -2.9493582
