28
191_C13H10N4O_2-0-22-18 (-165,) energy =    -795.6562961
N           1.6047877    -0.9499585     0.2466866
H           1.6450248     0.0617043     0.2924901
C           2.8021566    -1.6278427     0.0174800
N           3.8855024    -0.7695420     0.0215746
H           3.7485725     0.2241600     0.1666881
O           2.8806729    -2.8359780    -0.1535632
C           7.9421555    -1.3866415    -0.4719238
H           9.0179272    -1.4640997    -0.5912404
C           7.1153253    -2.5099899    -0.5350528
C           5.2445103    -1.0785024    -0.1579121
H           7.5377711    -3.4963319    -0.7071431
C           5.7398225    -2.3730650    -0.3778680
H           5.0646525    -3.2154212    -0.4205943
C          -2.3641868    -2.3921792     0.1344594
H          -3.3879182    -2.7515298     0.1098656
C          -2.1013145    -1.0290915     0.1162169
N           6.0210195     0.0113613    -0.0942104
H          -2.9081156    -0.3043367     0.0770125
C          -0.7765355    -0.5649088     0.1437621
C          -0.5048673     0.8384067     0.1230793
N          -0.2089288     1.9655245     0.1127965
C           7.3389009    -0.1510875    -0.2491192
C           0.3103953    -1.4782176     0.2008775
C           0.0275413    -2.8526711     0.2221801
H           7.9352196     0.7576988    -0.1908256
H           0.8469853    -3.5555389     0.2570326
C          -1.2939019    -3.2904269     0.1858930
H          -1.4877211    -4.3593837     0.2023308
28
191_C13H10N4O_2-0-22-18 (-150,) energy =    -795.6554732
N           1.6151692    -0.9533153     0.4358731
H           1.6526845     0.0597391     0.4604467
C           2.7985862    -1.6142504     0.0897365
N           3.8912296    -0.7708757     0.1418402
H           3.7749298     0.1954488     0.4244924
O           2.8532124    -2.8004695    -0.1980249
C           7.9203912    -1.3768690    -0.5499806
H           8.9906179    -1.4537164    -0.7119626
C           7.0713842    -2.4701049    -0.7334840
C           5.2394927    -1.0730465    -0.1144218
H           7.4702754    -3.4314532    -1.0459603
C           5.7038386    -2.3347225    -0.5169457
H           5.0120628    -3.1545153    -0.6465232
C          -2.3362468    -2.4040486     0.0755241
H          -3.3550003    -2.7682588    -0.0102844
C          -2.0689162    -1.0461613    -0.0358335
N           6.0373577    -0.0123842     0.0671029
H          -2.8669902    -0.3316747    -0.2098256
C          -0.7494734    -0.5762215     0.0675324
C          -0.4697239     0.8210594    -0.0508341
N          -0.1740224     1.9452766    -0.1310886
C           7.3469472    -0.1724819    -0.1489674
C           0.3211752    -1.4764762     0.3065542
C           0.0338260    -2.8443484     0.4208965
H           7.9615895     0.7119351     0.0088372
H           0.8441044    -3.5391330     0.5886054
C          -1.2792430    -3.2916514     0.3005196
H          -1.4784745    -4.3557940     0.3914144
28
191_C13H10N4O_2-0-22-18 (-135,) energy =    -795.6540030
N           1.6303055    -0.9506370     0.6333590
H           1.6699998     0.0624179     0.6735246
C           2.7953883    -1.5851720     0.1738965
N           3.9004953    -0.7639131     0.2714271
H           3.8087799     0.1632130     0.6703488
O           2.8179687    -2.7376151    -0.2282081
C           7.8943768    -1.3430683    -0.6199509
H           8.9573086    -1.4153849    -0.8261149
C           7.0207182    -2.3962085    -0.8980244
C           5.2347437    -1.0537796    -0.0611912
H           7.3921016    -3.3207987    -1.3318073
C           5.6636116    -2.2672379    -0.6207040
H           4.9533849    -3.0572148    -0.8183272
C          -2.2830985    -2.4054036    -0.0126667
H          -3.2910062    -2.7752124    -0.1720769
C          -1.9971848    -1.0599466    -0.2043553
N           6.0565746    -0.0322335     0.2130735
H          -2.7693223    -0.3635870    -0.5149912
C          -0.6901939    -0.5831721    -0.0089303
C          -0.3855239     0.7999075    -0.2108640
N          -0.0809429     1.9155623    -0.3510819
C           7.3555002    -0.1849881    -0.0645180
C           0.3379461    -1.4602693     0.4159378
C           0.0326372    -2.8136353     0.6070157
H           7.9906048     0.6667223     0.1723658
H           0.8179273    -3.4909558     0.9135805
C          -1.2628914    -3.2742902     0.3878562
H          -1.4793645    -4.3277769     0.5409960
28
191_C13H10N4O_2-0-22-18 (-120,) energy =    -795.6517960
N           1.6327784    -0.9874093     0.8230686
H           1.6747558     0.0237661     0.9040774
C           2.7774828    -1.5795320     0.2543959
N           3.8950493    -0.7838575     0.3995152
H           3.8282347     0.0945773     0.9003217
O           2.7677373    -2.6840795    -0.2633348
C           7.8463536    -1.3061965    -0.6925051
H           8.9001315    -1.3676982    -0.9441881
C           6.9475922    -2.3130407    -1.0507968
C           5.2129956    -1.0492062    -0.0091122
H           7.2894626    -3.1892018    -1.5952670
C           5.6032576    -2.1996424    -0.7116698
H           4.8742030    -2.9553907    -0.9667270
C          -2.2365974    -2.4217537    -0.0890082
H          -3.2311286    -2.7917117    -0.3177990
C          -1.9073831    -1.0999098    -0.3628411
N           6.0591325    -0.0729060     0.3442948
H          -2.6314061    -0.4248712    -0.8074465
C          -0.6160895    -0.6247665    -0.0786114
C          -0.2624323     0.7323042    -0.3649004
N           0.0697960     1.8296943    -0.5690179
C           7.3450630    -0.2093808     0.0044403
C           0.3403516    -1.4733308     0.5261415
C          -0.0053980    -2.8015615     0.7917216
H           8.0010811     0.6042524     0.3086997
H           0.7335715    -3.4575781     1.2343359
C          -1.2803466    -3.2680044     0.4812627
H          -1.5323720    -4.3026812     0.6952387
28
191_C13H10N4O_2-0-22-18 (-105,) energy =    -795.6490522
N           1.6269145    -1.0572584     0.9897613
H           1.6703846    -0.0526848     1.1343281
C           2.7477799    -1.5896416     0.3165554
N           3.8794724    -0.8257547     0.5120353
H           3.8393770    -0.0119843     1.1143540
O           2.7045231    -2.6301795    -0.3174226
C           7.7848292    -1.2573642    -0.7681262
H           8.8285815    -1.2996671    -1.0620866
C           6.8613076    -2.2091439    -1.2055743
C           5.1796450    -1.0549950     0.0318515
H           7.1731774    -3.0212327    -1.8569221
C           5.5309323    -2.1225716    -0.8087914
H           4.7835981    -2.8380214    -1.1209109
C          -2.2125383    -2.4429959    -0.1179358
H          -3.1968214    -2.8044131    -0.3992035
C          -1.8133675    -1.1633992    -0.4874042
N           6.0500992    -0.1329261     0.4633482
H          -2.4717641    -0.5165805    -1.0580806
C          -0.5349021    -0.7000050    -0.1353635
C          -0.1079080     0.6129759    -0.5156624
N           0.2705146     1.6783820    -0.7933072
C           7.3219400    -0.2420798     0.0653509
C           0.3294317    -1.5110821     0.6331958
C          -0.0830877    -2.7958182     0.9881294
H           7.9986887     0.5256214     0.4363794
H           0.5942410    -3.4222536     1.5571262
C          -1.3428932    -3.2581220     0.6124356
H          -1.6503443    -4.2599847     0.8977867
28
191_C13H10N4O_2-0-22-18 (-90,) energy =    -795.6463974
N           1.6402579    -1.1143052     1.0624155
H           1.6885868    -0.1308222     1.3126403
C           2.7383217    -1.5688787     0.3024380
N           3.8953702    -0.8775204     0.5990120
H           3.8878428    -0.1824248     1.3359253
O           2.6564882    -2.4990002    -0.4813807
C           7.7660741    -1.1950592    -0.8120508
H           8.8035298    -1.2163418    -1.1296712
C           6.8058709    -2.0296071    -1.3883124
C           5.1804099    -1.0576092     0.0628251
H           7.0816967    -2.7258711    -2.1758308
C           5.4852729    -1.9741959    -0.9556013
H           4.7107626    -2.6039081    -1.3697463
C          -2.2064686    -2.4318671    -0.1168824
H          -3.1910607    -2.7777462    -0.4164753
C          -1.7114313    -1.2336205    -0.6222342
N           6.0866232    -0.2499954     0.6295419
H          -2.2964789    -0.6380839    -1.3154431
C          -0.4339195    -0.7899169    -0.2446159
C           0.0858134     0.4432095    -0.7566933
N           0.5198830     1.4508089    -1.1448867
C           7.3482631    -0.3262105     0.1929479
C           0.3338039    -1.5376569     0.6738097
C          -0.1736260    -2.7388625     1.1645244
H           8.0549860     0.3455285     0.6771539
H           0.4327435    -3.3143999     1.8556803
C          -1.4351166    -3.1853904     0.7709989
H          -1.8184865    -4.1230566     1.1626979
28
191_C13H10N4O_2-0-22-18 (-75,) energy =    -795.6457694
N           1.6562038    -1.0468486     0.9185236
H           1.8644363    -1.0488236     1.9106263
C           2.7449949    -1.3389456     0.0731850
N           3.9414336    -0.9202337     0.6200455
H           3.9315545    -0.3453003     1.4541452
O           2.6131337    -1.8784089    -1.0110702
C           7.8408028    -1.1525382    -0.7266485
H           8.8878615    -1.1721077    -1.0111211
C           6.8546925    -1.7425254    -1.5204783
C           5.2335470    -1.0418208     0.0828052
H           7.1191871    -2.2375372    -2.4510364
C           5.5220249    -1.6952478    -1.1253116
H           4.7252326    -2.1270305    -1.7141455
C          -2.2478219    -2.4098205     0.0367781
H          -3.2541710    -2.7517955    -0.1843224
C          -1.6786350    -1.3914699    -0.7223256
N           6.1636969    -0.4689982     0.8581242
H          -2.2337140    -0.9283122    -1.5314876
C          -0.3827811    -0.9328530    -0.4374615
C           0.1595327     0.1601500    -1.1888090
N           0.5578517     1.0679521    -1.7968124
C           7.4360334    -0.5280163     0.4503999
C           0.3618259    -1.5338421     0.5992211
C          -0.2247373    -2.5496320     1.3561865
H           8.1624901    -0.0487805     1.1044110
H           0.3487702    -3.0111113     2.1557971
C          -1.5224870    -2.9815710     1.0835343
H          -1.9606337    -3.7745096     1.6827546
28
191_C13H10N4O_2-0-22-18 (-60,) energy =    -795.6465764
N           1.6780632    -1.2090912     0.9694116
H           1.9014151    -1.2811217     1.9545128
C           2.7536081    -1.3877498     0.0785966
N           3.9513237    -0.9970653     0.6433560
H           3.9464119    -0.4988937     1.5254402
O           2.6158948    -1.8308518    -1.0473574
C           7.8364567    -1.0601601    -0.7619176
H           8.8802756    -1.0413057    -1.0580826
C           6.8479909    -1.5897019    -1.5944134
C           5.2379368    -1.0546704     0.0822084
H           7.1070222    -1.9966902    -2.5681410
C           5.5196484    -1.5943425    -1.1822107
H           4.7211411    -1.9814588    -1.7990961
C          -2.2862376    -2.3456544     0.0492761
H          -3.3053391    -2.6388498    -0.1826447
C          -1.6206323    -1.4392189    -0.7692597
N           6.1703355    -0.5407313     0.8951456
H          -2.1143194    -1.0103289    -1.6351739
C          -0.3052819    -1.0406427    -0.4781288
C           0.3001190    -0.0221547    -1.2830198
N           0.7336253     0.8424053    -1.9290400
C           7.4383633    -0.5472664     0.4700675
C           0.3621597    -1.5953790     0.6366676
C          -0.3239690    -2.4983281     1.4549798
H           8.1668527    -0.1185715     1.1560850
H           0.1889687    -2.9276854     2.3119536
C          -1.6382679    -2.8637785     1.1723407
H          -2.1494741    -3.5675487     1.8228826
28
191_C13H10N4O_2-0-22-18 (-45,) energy =    -795.6458905
N           1.7036723    -1.4091331     0.9695147
H           1.9351022    -1.5104980     1.9491427
C           2.7694852    -1.4698143     0.0562638
N           3.9589030    -1.0808009     0.6402662
H           3.9455397    -0.6430585     1.5536579
O           2.6386771    -1.8392063    -1.0967366
C           7.8399446    -0.9623812    -0.7711580
H           8.8820992    -0.9005636    -1.0672874
C           6.8612912    -1.4568562    -1.6362038
C           5.2449497    -1.0722814     0.0744709
H           7.1265731    -1.7913869    -2.6354745
C           5.5343809    -1.5189518    -1.2239407
H           4.7430045    -1.8804640    -1.8650369
C          -2.3421711    -2.2463127     0.0888346
H          -3.3799854    -2.4755659    -0.1313389
C          -1.6046536    -1.4500373    -0.7789051
N           6.1676891    -0.5925171     0.9187849
H          -2.0624494    -1.0383578    -1.6724837
C          -0.2603465    -1.1337078    -0.5109899
C           0.3857965    -0.1831058    -1.3654429
N           0.8304890     0.6440313    -2.0519414
C           7.4344548    -0.5417790     0.4929752
C           0.3604102    -1.6616409     0.6451811
C          -0.4013114    -2.4535270     1.5152393
H           8.1550696    -0.1433143     1.2050572
H           0.0747524    -2.8676066     2.4007805
C          -1.7379853    -2.7336339     1.2500979
H          -2.3021675    -3.3501768     1.9439621
28
191_C13H10N4O_2-0-22-18 (-30,) energy =    -795.6438896
N           1.7311616    -1.6141435     0.9224649
H           1.9656782    -1.7262177     1.8996396
C           2.7933897    -1.5552888     0.0092251
N           3.9684640    -1.1671399     0.6233883
H           3.9424775    -0.7916027     1.5636823
O           2.6794881    -1.8521323    -1.1663437
C           7.8525434    -0.8691935    -0.7527886
H           8.8944286    -0.7643872    -1.0375421
C           6.8896728    -1.3276464    -1.6545551
C           5.2570689    -1.0934984     0.0675994
H           7.1672073    -1.5893250    -2.6720430
C           5.5625062    -1.4465561    -1.2556058
H           4.7826233    -1.7819368    -1.9244002
C          -2.3893861    -2.1380109     0.1498477
H          -3.4457983    -2.2988917    -0.0398602
C          -1.6118749    -1.4489968    -0.7707283
N           6.1642043    -0.6490132     0.9474086
H          -2.0560549    -1.0486863    -1.6763110
C          -0.2389181    -1.2210581    -0.5511139
C           0.4226046    -0.3416102    -1.4680880
N           0.8535963     0.4442333    -2.2099401
C           7.4314415    -0.5417028     0.5336404
C           0.3671359    -1.7288609     0.6235463
C          -0.4390360    -2.4110104     1.5496443
H           8.1392792    -0.1744929     1.2747174
H           0.0230061    -2.8130331     2.4483153
C          -1.7968186    -2.6031006     1.3267764
H          -2.3886528    -3.1345642     2.0664984
28
191_C13H10N4O_2-0-22-18 (-15,) energy =    -795.6411289
N           1.6014061    -1.5083268    -0.8642471
H           1.7249120    -1.7161192    -1.8461603
C           2.7492037    -1.1608746    -0.1402683
N           3.9039428    -1.5253132    -0.8064326
H           3.8519964    -2.1409478    -1.6088908
O           2.7115266    -0.5594686     0.9179251
C           7.8974712    -0.7799094    -0.0523356
H           8.9643611    -0.6281088     0.0754082
C           6.9693742    -0.2532325     0.8485266
C           5.2347280    -1.2243965    -0.4682256
H           7.3009934     0.3241432     1.7072506
C           5.6092220    -0.4709513     0.6545912
H           4.8579608    -0.0952288     1.3346261
C          -2.4538223    -1.8363898     0.2824838
H          -3.5033795    -1.8920369     0.5527285
C          -1.4759132    -1.8843384     1.2646929
N           6.1081700    -1.7411954    -1.3425634
H          -1.7505925    -1.9991124     2.3082273
C          -0.1016892    -1.8159068     0.9517999
C           0.7943438    -2.0740949     2.0401831
N           1.4070998    -2.3840796     2.9795421
C           7.4091899    -1.5183390    -1.1274244
C           0.2891611    -1.6757252    -0.4029973
C          -0.7182815    -1.6434988    -1.3848314
H           8.0886862    -1.9560177    -1.8566298
H          -0.4269809    -1.5214567    -2.4256489
C          -2.0633551    -1.7344452    -1.0555467
H          -2.8083334    -1.7074864    -1.8456210
28
191_C13H10N4O_2-0-22-18 (0,) energy =    -795.6381397
N           1.5983960    -1.3481160    -0.7941297
H           1.7154688    -1.4893411    -1.7888249
C           2.7744201    -1.1218973    -0.0682916
N           3.8993813    -1.4348986    -0.8096316
H           3.8115098    -1.9603281    -1.6709484
O           2.7887905    -0.6469706     1.0521875
C           7.9305667    -0.8520521    -0.1130537
H           9.0040816    -0.7353387    -0.0056461
C           7.0425695    -0.3937361     0.8624245
C           5.2466665    -1.1983179    -0.4845166
H           7.4127637     0.0929511     1.7606505
C           5.6723961    -0.5635133     0.6920961
H           4.9513746    -0.2377774     1.4283278
C          -2.4626843    -1.9676206     0.2184577
H          -3.5155902    -2.0975523     0.4465880
C          -1.5295661    -1.8959685     1.2403573
N           6.0812085    -1.6484394    -1.4307294
H          -1.8426950    -1.9872635     2.2752463
C          -0.1489971    -1.7253559     0.9912352
C           0.6782785    -1.8380161     2.1579146
N           1.1895748    -2.0297473     3.1854865
C           7.3929841    -1.4744777    -1.2369335
C           0.2955097    -1.6166406    -0.3512013
C          -0.6706300    -1.7056623    -1.3738175
H           8.0397820    -1.8550637    -2.0254616
H          -0.3431874    -1.6109132    -2.4069965
C          -2.0185014    -1.8859184    -1.1037536
H          -2.7230713    -1.9504570    -1.9279784
28
191_C13H10N4O_2-0-22-18 (15,) energy =    -795.6411303
N           1.6363188    -1.7254229    -0.8308436
H           1.7481715    -1.7423165    -1.8357732
C           2.8086508    -1.6260838    -0.0702192
N           3.8761300    -1.1886753    -0.8315712
H           3.7152672    -0.8077814    -1.7560821
O           2.8703683    -1.9469215     1.1028147
C           7.9098048    -0.8303051    -0.0114891
H           8.9793576    -0.7076713     0.1249448
C           7.0924475    -1.3181671     1.0103908
C           5.2290648    -1.0979145    -0.4610368
H           7.5155975    -1.5856090     1.9748429
C           5.7245306    -1.4592423     0.8009507
H           5.0533014    -1.8179067     1.5682851
C          -2.4276016    -2.0360097     0.2894088
H          -3.4720141    -2.1506138     0.5609833
C          -1.5172438    -1.5373893     1.2090800
N           5.9945772    -0.6250719    -1.4534488
H          -1.8447505    -1.2380586     2.1994013
C          -0.1520775    -1.3733483     0.8922434
C           0.6289838    -0.6682704     1.8653221
N           1.1290207    -0.0139319     2.6873570
C           7.3053494    -0.4967630    -1.2209948
C           0.3050575    -1.7458617    -0.3963445
C          -0.6379619    -2.2358850    -1.3187526
H           7.8945540    -0.1068913    -2.0491694
H          -0.2930136    -2.5375051    -2.3052090
C          -1.9802202    -2.3683672    -0.9922166
H          -2.6744619    -2.7490877    -1.7358738
28
191_C13H10N4O_2-0-22-18 (30,) energy =    -795.6438924
N           1.6083010    -1.5320649    -0.8928920
H           1.7151402    -1.5248813    -1.8983001
C           2.7802061    -1.5499823    -0.1244575
N           3.8686580    -1.0963377    -0.8445679
H           3.7262308    -0.6431826    -1.7390887
O           2.8181166    -1.9573901     1.0227031
C           7.9015798    -0.9166906     0.0349403
H           8.9726760    -0.8360194     0.1893798
C           7.0590790    -1.4521506     1.0116454
C           5.2191219    -1.0714924    -0.4569135
H           7.4635086    -1.8006018     1.9581191
C           5.6901971    -1.5370998     0.7801285
H           5.0001825    -1.9301016     1.5131922
C          -2.3798926    -2.1495511     0.3566554
H          -3.4035530    -2.3336697     0.6666836
C          -1.4856657    -1.5419663     1.2274099
N           6.0091241    -0.5518322    -1.4058074
H          -1.8063473    -1.2283627     2.2155449
C          -0.1519039    -1.2861050     0.8525930
C           0.6289433    -0.4894786     1.7513656
N           1.1581331     0.2281769     2.4987218
C           7.3203800    -0.4796023    -1.1527297
C           0.2934246    -1.6816355    -0.4319043
C          -0.6294638    -2.2829346    -1.3032872
H           7.9298166    -0.0490723    -1.9453819
H          -0.2896347    -2.6000216    -2.2864071
C          -1.9480611    -2.5025725    -0.9245040
H          -2.6338832    -2.9691089    -1.6258711
28
191_C13H10N4O_2-0-22-18 (45,) energy =    -795.6458906
N           1.5745166    -1.3254863    -0.9172849
H           1.6773969    -1.3366219    -1.9236586
C           2.7485364    -1.4628847    -0.1580331
N           3.8553966    -1.0161571    -0.8525842
H           3.7277490    -0.4975833    -1.7133200
O           2.7647570    -1.9357316     0.9640756
C           7.8864788    -1.0053720     0.0533511
H           8.9584727    -0.9648746     0.2170832
C           7.0238115    -1.5812924     0.9885902
C           5.2034973    -1.0520325    -0.4583344
H           7.4132976    -2.0034497     1.9110338
C           5.6545499    -1.6128510     0.7463233
H           4.9497958    -2.0351266     1.4484500
C          -2.3297715    -2.2601561     0.3972010
H          -3.3320742    -2.5137529     0.7275974
C          -1.4817442    -1.5417711     1.2313062
N           6.0131778    -0.4929114    -1.3673155
H          -1.8181111    -1.2149920     2.2098866
C          -0.1810267    -1.1954204     0.8224274
C           0.5756731    -0.3225702     1.6690429
N           1.1101832     0.4414701     2.3645504
C           7.3244104    -0.4742961    -1.1048209
C           0.2825452    -1.6133357    -0.4469128
C          -0.5898606    -2.3271999    -1.2797421
H           7.9500821    -0.0091761    -1.8646232
H          -0.2339932    -2.6567890    -2.2528827
C          -1.8831562    -2.6372499    -0.8714251
H          -2.5358167    -3.1914357    -1.5398547
28
191_C13H10N4O_2-0-22-18 (60,) energy =    -795.6465764
N           1.5505442    -1.1266873    -0.8960123
H           1.6453023    -1.1085369    -1.9040604
C           2.7304897    -1.3794217    -0.1704518
N           3.8480882    -0.9324507    -0.8465447
H           3.7325610    -0.3562537    -1.6717176
O           2.7355996    -1.9238818     0.9188448
C           7.8811404    -1.1017273     0.0355813
H           8.9544441    -1.1042749     0.1956828
C           7.0047122    -1.7103853     0.9366608
C           5.1958433    -1.0337323    -0.4632268
H           7.3840931    -2.2029954     1.8278923
C           5.6344011    -1.6847827     0.7000257
H           4.9194569    -2.1308581     1.3766996
C          -2.2700205    -2.3618854     0.4201607
H          -3.2528117    -2.6800870     0.7536180
C          -1.4987280    -1.5295676     1.2245401
N           6.0191238    -0.4427183    -1.3391675
H          -1.8742128    -1.1829864     2.1818131
C          -0.2291186    -1.0997274     0.8037157
C           0.4812828    -0.1549963     1.6127247
N           0.9991172     0.6501000     2.2733380
C           7.3312273    -0.4809170    -1.0831426
C           0.2858426    -1.5482607    -0.4330603
C          -0.5056545    -2.3773270    -1.2342792
H           7.9681262     0.0125135    -1.8152530
H          -0.1101589    -2.7253135    -2.1852541
C          -1.7750664    -2.7733894    -0.8189020
H          -2.3702589    -3.4182774    -1.4589735
28
191_C13H10N4O_2-0-22-18 (75,) energy =    -795.6457715
N           1.5344422    -0.9665948    -0.8336363
H           1.6116723    -0.8722568    -1.8398326
C           2.7207877    -1.3287263    -0.1663029
N           3.8418782    -0.8586151    -0.8208685
H           3.7308139    -0.2103615    -1.5914384
O           2.7244236    -1.9651583     0.8724269
C           7.8788565    -1.1927293    -0.0048932
H           8.9533708    -1.2325665     0.1416463
C           6.9974338    -1.8579507     0.8502151
C           5.1905931    -1.0222731    -0.4642658
H           7.3743356    -2.4345068     1.6907328
C           5.6258313    -1.7818112     0.6327754
H           4.9073071    -2.2698152     1.2758839
C          -2.2276414    -2.4280745     0.4256997
H          -3.1981284    -2.7948088     0.7454535
C          -1.5585580    -1.4785899     1.1925084
N           6.0188671    -0.3762152    -1.2955259
H          -1.9993589    -1.0930806     2.1060048
C          -0.3087468    -0.9881727     0.7824792
C           0.3323323     0.0364610     1.5521383
N           0.8118377     0.8881093     2.1823650
C           7.3321783    -0.4656050    -1.0592688
C           0.2903916    -1.4883937    -0.3928268
C          -0.3957991    -2.4355620    -1.1549773
H           7.9730088     0.0751312    -1.7535880
H           0.0653107    -2.8195400    -2.0611747
C          -1.6489251    -2.8983892    -0.7544216
H          -2.1662270    -3.6369079    -1.3600099
28
191_C13H10N4O_2-0-22-18 (90,) energy =    -795.6463983
N           1.5170851    -1.0230113    -0.9715587
H           1.5398969    -0.0201139    -1.1327149
C           2.6995540    -1.5405480    -0.4019996
N           3.8142083    -0.8189723    -0.7782302
H           3.7180113    -0.0609945    -1.4434201
O           2.7114408    -2.5387078     0.2977754
C           7.8304838    -1.2455649     0.0945357
H           8.8997069    -1.2908495     0.2744217
C           6.9452813    -2.1324084     0.7113576
C           5.1556828    -1.0412513    -0.4284785
H           7.3139859    -2.8952052     1.3919769
C           5.5808292    -2.0440525     0.4568963
H           4.8607299    -2.7116864     0.9081707
C          -2.1576975    -2.4623002     0.5610108
H          -3.0986237    -2.8388267     0.9505014
C          -1.5940950    -1.3133543     1.1073946
N           5.9883614    -0.1823402    -1.0314228
H          -2.0820790    -0.7870088     1.9212306
C          -0.3718936    -0.8306707     0.6127295
C           0.2169376     0.3525630     1.1660043
N           0.7038743     1.3221784     1.5868469
C           7.2946896    -0.2919677    -0.7674687
C           0.2676518    -1.4869122    -0.4606802
C          -0.3064957    -2.6400953    -0.9913012
H           7.9390016     0.4233750    -1.2756975
H           0.2037965    -3.1457329    -1.8040291
C          -1.5108757    -3.1271781    -0.4834107
H          -1.9474986    -4.0265668    -0.9077754
28
191_C13H10N4O_2-0-22-18 (105,) energy =    -795.6490529
N           1.5003801    -0.9632890    -0.9104936
H           1.5332869     0.0503999    -0.9680611
C           2.6941867    -1.5498256    -0.4380508
N           3.7971911    -0.7664205    -0.7070015
H           3.6866172     0.0971074    -1.2253873
O           2.7251350    -2.6437782     0.0993568
C           7.8301918    -1.2938745     0.0236142
H           8.9024563    -1.3576610     0.1778786
C           6.9628023    -2.2847825     0.4882376
C           5.1460956    -1.0320582    -0.4184004
H           7.3488557    -3.1503900     1.0199319
C           5.5935561    -2.1687928     0.2725445
H           4.8867278    -2.9125345     0.6117547
C          -2.1769933    -2.4631694     0.5446729
H          -3.1200349    -2.8535997     0.9145047
C          -1.7247619    -1.2212625     0.9764363
N           5.9613806    -0.0715543    -0.8731818
H          -2.3008055    -0.6332589     1.6835031
C          -0.4981752    -0.7212700     0.5088052
C          -0.0168130     0.5530673     0.9507106
N           0.3994769     1.5904844     1.2760476
C           7.2725692    -0.2104157    -0.6508834
C           0.2554828    -1.4539686    -0.4350265
C          -0.2083043    -2.7024442    -0.8511603
H           7.9023098     0.5900958    -1.0351044
H           0.3867109    -3.2703580    -1.5570888
C          -1.4133965    -3.2034390    -0.3624861
H          -1.7618286    -4.1761451    -0.6973707
28
191_C13H10N4O_2-0-22-18 (120,) energy =    -795.6517945
N           1.5209130    -0.9147951    -0.7446039
H           1.5596341     0.0997510    -0.7390382
C           2.7222156    -1.5528714    -0.3779619
N           3.8183853    -0.7410802    -0.5831551
H           3.6949712     0.1830374    -0.9802844
O           2.7687108    -2.7019701     0.0290179
C           7.8708848    -1.3494587    -0.0523406
H           8.9473198    -1.4310804     0.0580781
C           7.0161949    -2.3913981     0.3134795
C           5.1753043    -1.0383240    -0.3713263
H           7.4169110    -3.3158176     0.7207161
C           5.6408586    -2.2514226     0.1586755
H           4.9434504    -3.0321066     0.4268458
C          -2.2167037    -2.4323163     0.5169810
H          -3.1780174    -2.8232730     0.8353352
C          -1.8438470    -1.1391690     0.8625434
N           5.9779842    -0.0273418    -0.7287428
H          -2.5004199    -0.5076476     1.4521784
C          -0.5941076    -0.6381425     0.4612471
C          -0.1953459     0.6890217     0.8193554
N           0.1723165     1.7640883     1.0750528
C           7.2952387    -0.1906601    -0.5679793
C           0.2714796    -1.4279193    -0.3309951
C          -0.1168842    -2.7279983    -0.6672007
H           7.9144012     0.6524788    -0.8691361
H           0.5550167    -3.3403232    -1.2553155
C          -1.3470935    -3.2227067    -0.2412096
H          -1.6333693    -4.2348687    -0.5121871
28
191_C13H10N4O_2-0-22-18 (135,) energy =    -795.6540038
N           1.5441288    -0.8894309    -0.5533404
H           1.5856567     0.1232584    -0.5061167
C           2.7535970    -1.5578966    -0.3053016
N           3.8424986    -0.7253541    -0.4675498
H           3.7073287     0.2337038    -0.7659658
O           2.8195127    -2.7419139    -0.0152639
C           7.9126073    -1.3656889    -0.1472096
H           8.9925097    -1.4523094    -0.0850803
C           7.0734182    -2.4432855     0.1431481
C           5.2061708    -1.0377855    -0.3350466
H           7.4899381    -3.4018748     0.4407636
C           5.6930880    -2.2953369     0.0533405
H           5.0076762    -3.1028213     0.2672448
C          -2.2662053    -2.4136962     0.4499874
H          -3.2483744    -2.8009461     0.7018620
C          -1.9483102    -1.0901204     0.7253119
N           5.9940545     0.0078811    -0.6179383
H          -2.6694977    -0.4281304     1.1935724
C          -0.6731751    -0.5921446     0.4094674
C          -0.3354186     0.7681221     0.6960040
N          -0.0076918     1.8677637     0.8972349
C           7.3165183    -0.1640903    -0.5226023
C           0.2862213    -1.4225218    -0.2205673
C          -0.0508016    -2.7541167    -0.4937030
H           7.9228655     0.7081434    -0.7601712
H           0.6837568    -3.3977885    -0.9579833
C          -1.3114644    -3.2380015    -0.1543440
H          -1.5534859    -4.2740265    -0.3738929
28
191_C13H10N4O_2-0-22-18 (150,) energy =    -795.6554725
N           1.5557397    -0.9062762    -0.3504145
H           1.5959408     0.1049275    -0.2864022
C           2.7684187    -1.5908968    -0.2181466
N           3.8515213    -0.7404857    -0.3263926
H           3.7073806     0.2454232    -0.5119672
O           2.8505246    -2.7983055    -0.0499219
C           7.9313392    -1.3936411    -0.2330395
H           9.0128754    -1.4813943    -0.2223720
C           7.1045126    -2.4999622    -0.0279375
C           5.2191639    -1.0602552    -0.2802126
H           7.5327502    -3.4830057     0.1486619
C           5.7216028    -2.3498110    -0.0477562
H           5.0458688    -3.1789178     0.1051465
C          -2.3291437    -2.4046151     0.3630835
H          -3.3316265    -2.7805406     0.5408134
C          -2.0409251    -1.0618158     0.5670243
N           5.9952159     0.0133447    -0.4791513
H          -2.8063587    -0.3710026     0.9054959
C          -0.7415511    -0.5775123     0.3444381
C          -0.4395861     0.8039044     0.5570507
N          -0.1284628     1.9170701     0.7045528
C           7.3204188    -0.1614578    -0.4536639
C           0.2847064    -1.4460168    -0.1096539
C          -0.0237540    -2.7984583    -0.3154947
H           7.9164884     0.7342124    -0.6190702
H           0.7544702    -3.4704223    -0.6475749
C          -1.3144991    -3.2617426    -0.0745253
H          -1.5307311    -4.3135896    -0.2394634
28
191_C13H10N4O_2-0-22-18 (165,) energy =    -795.6562995
N           1.5747839    -0.9195657    -0.1585799
H           1.6169049     0.0915629    -0.1030840
C           2.7876393    -1.6086851    -0.1451215
N           3.8670604    -0.7477254    -0.2091133
H           3.7191272     0.2529184    -0.2728415
O           2.8798660    -2.8268516    -0.0954672
C           7.9487346    -1.3888482    -0.3105379
H           9.0302241    -1.4719478    -0.3421599
C           7.1298569    -2.5154831    -0.2121655
C           5.2355288    -1.0654315    -0.2384345
H           7.5644627    -3.5103722    -0.1646127
C           5.7467212    -2.3708382    -0.1736836
H           5.0773483    -3.2155449    -0.0984059
C          -2.3589170    -2.3914970     0.2919004
H          -3.3743028    -2.7575069     0.4049127
C          -2.0878032    -1.0352823     0.4133100
N           6.0041838     0.0277479    -0.3330418
H          -2.8799997    -0.3235097     0.6219445
C          -0.7736266    -0.5618259     0.2713731
C          -0.4919976     0.8340163     0.3973288
N          -0.1885468     1.9558170     0.4843670
C           7.3297363    -0.1423473    -0.3674313
C           0.2927509    -1.4582435    -0.0076439
C           0.0011810    -2.8254875    -0.1307899
H           7.9193095     0.7694276    -0.4445563
H           0.8070019    -3.5153070    -0.3343542
C          -1.3084143    -3.2737821     0.0217399
H          -1.5088937    -4.3370858    -0.0769857
28
191_C13H10N4O_2-0-22-18 (180,) energy =    -795.6565528
N           1.5947325    -0.9454733     0.0358835
H           1.6345173     0.0664105     0.0731019
C           2.8029383    -1.6321578    -0.0703146
N           3.8823497    -0.7688340    -0.0994330
H           3.7376199     0.2325241    -0.0396663
O           2.8948961    -2.8501488    -0.1310141
C           7.9570976    -1.3975215    -0.3866845
H           9.0369168    -1.4770759    -0.4586879
C           7.1371583    -2.5276438    -0.3904138
C           5.2482230    -1.0826886    -0.2003941
H           7.5692122    -3.5218764    -0.4664094
C           5.7562032    -2.3874437    -0.2964210
H           5.0862280    -3.2350039    -0.2953816
C          -2.3668174    -2.3999926     0.2245103
H          -3.3889799    -2.7611921     0.2739342
C          -2.1035642    -1.0375137     0.2663148
N           6.0179827     0.0137782    -0.1950750
H          -2.9089739    -0.3148121     0.3485565
C          -0.7810509    -0.5708304     0.2023251
C          -0.5097670     0.8319074     0.2453327
N          -0.2124851     1.9584028     0.2741888
C           7.3413246    -0.1521145    -0.2866372
C           0.3050325    -1.4813815     0.0941207
C           0.0219375    -2.8556902     0.0531583
H           7.9318124     0.7622947    -0.2788999
H           0.8401843    -3.5558334    -0.0289173
C          -1.2979582    -3.2949715     0.1182271
H          -1.4913104    -4.3636385     0.0845679
