28
191_C13H10N4O_0-2-3-9 (-165,) energy =    -795.6560454
N           1.6098407    -0.9618286     0.1104589
H           1.6557620     0.0502658     0.1303597
C           2.8167986    -1.6578650     0.1071718
N           3.9032902    -0.8050605     0.1977368
H           3.7560382     0.1957423     0.2653733
O           2.9050316    -2.8749259     0.0287723
C           7.9290992    -1.3791719    -0.5457884
H           8.9954213    -1.4451556    -0.7358809
C           7.1240440    -2.5183819    -0.4841567
C           5.2537703    -1.0981793    -0.0635211
H           7.5546091    -3.5060898    -0.6255177
C           5.7609427    -2.3953678    -0.2346792
H           5.1033558    -3.2504705    -0.1724204
C          -2.3657090    -2.3905062     0.1348447
H          -3.3913383    -2.7451534     0.1408947
C          -2.0963339    -1.0288448     0.1623335
N           6.0095133     0.0063191    -0.1160322
H          -2.9001917    -0.3003244     0.1908249
C          -0.7693449    -0.5706382     0.1548840
C          -0.4918450     0.8312266     0.1861762
N          -0.1898549     1.9565692     0.2100154
C           7.3172097    -0.1431430    -0.3511123
C           0.3148378    -1.4889718     0.1178274
C           0.0255714    -2.8621967     0.0882773
H           7.8973434     0.7772464    -0.3853874
H           0.8422438    -3.5682851     0.0559768
C          -1.2986556    -3.2931315     0.0985219
H          -1.4968830    -4.3611891     0.0759619
28
191_C13H10N4O_0-2-3-9 (-150,) energy =    -795.6544211
N           1.6402224    -0.9924260     0.1856848
H           1.7045570     0.0185759     0.1646394
C           2.8290822    -1.7081007     0.2971471
N           3.9233976    -0.8749869     0.4881049
H           3.7674054     0.1219970     0.5925068
O           2.9062065    -2.9254213     0.2192904
C           7.8602640    -1.3283354    -0.6967146
H           8.9015223    -1.3641832    -1.0001304
C           7.0842610    -2.4855758    -0.6018724
C           5.2472877    -1.1213307     0.0728175
H           7.5136686    -3.4574014    -0.8300723
C           5.7544302    -2.4000955    -0.2027404
H           5.1213834    -3.2704981    -0.1026251
C          -2.3553239    -2.3559832     0.0404242
H          -3.3858832    -2.6938817     0.0015974
C          -2.0642330    -0.9984263     0.0371138
N           5.9751338    -0.0009325    -0.0070498
H          -2.8556903    -0.2569947    -0.0027378
C          -0.7310555    -0.5614666     0.0881122
C          -0.4307444     0.8361391     0.0907303
N          -0.1118529     1.9569941     0.0960273
C           7.2539667    -0.1146173    -0.3821530
C           0.3364350    -1.4977989     0.1406518
C           0.0259729    -2.8664050     0.1395653
H           7.8137116     0.8174704    -0.4336497
H           0.8310815    -3.5858428     0.1712783
C          -1.3042198    -3.2762782     0.0927378
H          -1.5197024    -4.3412092     0.0942776
28
191_C13H10N4O_0-2-3-9 (-135,) energy =    -795.6515872
N           1.6877338    -1.0502312     0.2732534
H           1.7846574    -0.0438770     0.2061055
C           2.8418775    -1.7891374     0.5085290
N           3.9477586    -0.9784769     0.7667320
H           3.7805746     0.0119743     0.9151200
O           2.8983902    -3.0082204     0.4594318
C           7.7489251    -1.2672240    -0.8443891
H           8.7526752    -1.2632369    -1.2567195
C           7.0120001    -2.4477951    -0.7230052
C           5.2297412    -1.1600280     0.2024152
H           7.4352717    -3.3974651    -1.0390112
C           5.7317366    -2.4125245    -0.1809766
H           5.1318564    -3.3028426    -0.0495715
C          -2.3274293    -2.3189891    -0.0632254
H          -3.3624811    -2.6327610    -0.1525040
C          -2.0007104    -0.9699018    -0.0996516
N           5.9200345    -0.0192962     0.1000918
H          -2.7686026    -0.2118787    -0.2154758
C          -0.6619762    -0.5636280     0.0171640
C          -0.3249894     0.8254474    -0.0123022
N           0.0202223     1.9382903    -0.0285408
C           7.1553582    -0.0846336    -0.4105610
C           0.3740146    -1.5234218     0.1689816
C           0.0286789    -2.8829236     0.1989992
H           7.6878374     0.8624001    -0.4759188
H           0.8117647    -3.6197330     0.3036759
C          -1.3068127    -3.2623095     0.0873478
H          -1.5504205    -4.3207817     0.1149607
28
191_C13H10N4O_0-2-3-9 (-120,) energy =    -795.6476745
N           1.7456421    -1.1201188     0.3866784
H           1.8863996    -0.1230531     0.2733498
C           2.8520191    -1.8774241     0.7465906
N           3.9769355    -1.0878309     1.0386885
H           3.7975073    -0.1068044     1.2344859
O           2.8775473    -3.0970030     0.7547383
C           7.5843272    -1.1835390    -0.9937867
H           8.5356299    -1.1318879    -1.5132778
C           6.8945996    -2.3900712    -0.8466452
C           5.1950208    -1.1938610     0.3270310
H           7.3036244    -3.3126086    -1.2497974
C           5.6831454    -2.4136192    -0.1651653
H           5.1254409    -3.3273138    -0.0049627
C          -2.2782170    -2.2818614    -0.1672766
H          -3.3146468    -2.5685705    -0.3135117
C          -1.9065041    -0.9456981    -0.2387986
N           5.8402325    -0.0305468     0.2014761
H          -2.6401401    -0.1714677    -0.4387226
C          -0.5662727    -0.5742229    -0.0478150
C          -0.1845168     0.8022624    -0.1116212
N           0.1923928     1.9041414    -0.1495125
C           7.0141013    -0.0391895    -0.4430846
C           0.4248346    -1.5567563     0.2139229
C           0.0353952    -2.9026699     0.2776745
H           7.5132460     0.9247508    -0.5223801
H           0.7860142    -3.6566779     0.4655857
C          -1.3014325    -3.2474572     0.0921636
H          -1.5806287    -4.2959542     0.1477487
28
191_C13H10N4O_0-2-3-9 (-105,) energy =    -795.6432163
N           1.8266343    -1.1849122     0.4992892
H           2.0173605    -0.2015887     0.3444464
C           2.8730884    -1.9543927     0.9830542
N           4.0269160    -1.1888421     1.2861101
H           3.8400885    -0.2203515     1.5353155
O           2.8504467    -3.1686570     1.0736931
C           7.3808415    -1.0926304    -1.1443963
H           8.2662751    -0.9961467    -1.7641694
C           6.7316454    -2.3201025    -0.9819215
C           5.1572545    -1.2171582     0.4338000
H           7.1079337    -3.2129367    -1.4739975
C           5.6059466    -2.4012523    -0.1712502
H           5.0867292    -3.3352440     0.0062226
C          -2.1895321    -2.2378426    -0.2854094
H          -3.2229618    -2.4970238    -0.4919222
C          -1.7650563    -0.9199133    -0.3947448
N           5.7633746    -0.0352913     0.2932021
H          -2.4540162    -0.1331334    -0.6844083
C          -0.4289770    -0.5837936    -0.1257842
C           0.0047261     0.7750447    -0.2276569
N           0.4197891     1.8618320    -0.2908884
C           6.8584588     0.0117131    -0.4774984
C           0.5039438    -1.5841959     0.2538370
C           0.0623890    -2.9112296     0.3550649
H           7.3298613     0.9888719    -0.5645879
H           0.7696356    -3.6788527     0.6341442
C          -1.2699787    -3.2208449     0.0907158
H          -1.5908163    -4.2552073     0.1770949
28
191_C13H10N4O_0-2-3-9 (-90,) energy =    -795.6433316
N           1.8672606    -1.1347282     0.7163961
H           2.0871798    -0.2021335     0.3843912
C           2.8574530    -1.7359991     1.4638595
N           4.0274841    -0.9121319     1.5302885
H           4.4589396    -1.0333814     2.4449809
O           2.7418088    -2.7775286     2.0816801
C           7.1760302    -1.1254617    -1.1692108
H           8.0459155    -1.1590066    -1.8167672
C           5.8817072    -1.2790855    -1.6712771
C           5.0568165    -1.0251059     0.5623719
H           5.7141213    -1.4362992    -2.7332851
C           4.7974619    -1.2249985    -0.8033532
H           3.7836181    -1.3343025    -1.1722109
C          -1.9559950    -2.5458444    -0.3899022
H          -2.9411078    -2.8979909    -0.6786510
C          -1.4850184    -1.3267500    -0.8607609
N           6.2895530    -0.8820094     1.0588377
H          -2.0884926    -0.7122439    -1.5208863
C          -0.2105589    -0.8703639    -0.4892839
C           0.2755441     0.3798602    -0.9853473
N           0.7204872     1.3883771    -1.3620913
C           7.3165860    -0.9280431     0.2018895
C           0.6069767    -1.6447446     0.3743293
C           0.1176824    -2.8717546     0.8447961
H           8.3026778    -0.8046503     0.6460937
H           0.7339487    -3.4614788     1.5083928
C          -1.1478082    -3.3077561     0.4583212
H          -1.5074862    -4.2615472     0.8339999
28
191_C13H10N4O_0-2-3-9 (-75,) energy =    -795.6459507
N           1.9129204    -1.2274209     0.7256445
H           2.1850210    -0.3287425     0.3434410
C           2.8405581    -1.8295702     1.5546522
N           4.0598276    -1.1072921     1.6095899
H           4.5302586    -1.3133911     2.4878324
O           2.6252867    -2.7985682     2.2605458
C           7.0940418    -0.9423033    -1.2200932
H           7.9391062    -0.8822947    -1.8977879
C           5.7868146    -1.0818421    -1.6894052
C           5.0360599    -1.0825127     0.5842787
H           5.5831903    -1.1346502    -2.7553445
C           4.7326602    -1.1514390    -0.7850628
H           3.7133754    -1.2607690    -1.1354938
C          -1.9624307    -2.4820859    -0.3897480
H          -2.9605177    -2.7932822    -0.6809220
C          -1.3961073    -1.3427290    -0.9467147
N           6.2844686    -0.9548440     1.0485474
H          -1.9364424    -0.7507836    -1.6783172
C          -0.1044109    -0.9402853    -0.5720003
C           0.4845555     0.2218234    -1.1614642
N           1.0171799     1.1550572    -1.6118523
C           7.2805957    -0.8848481     0.1588599
C           0.6333624    -1.6854808     0.3847572
C           0.0480144    -2.8326487     0.9403231
H           8.2789225    -0.7813831     0.5803268
H           0.6021545    -3.3995441     1.6746550
C          -1.2318313    -3.2177790     0.5476141
H          -1.6658969    -4.1097165     0.9907156
28
191_C13H10N4O_0-2-3-9 (-60,) energy =    -795.6481389
N           1.9752231    -1.3693036     0.7350126
H           2.3014421    -0.5122083     0.3035025
C           2.8523856    -1.9785629     1.6166072
N           4.1177886    -1.3664999     1.6533690
H           4.6036742    -1.6225636     2.5079346
O           2.5567949    -2.8803340     2.3826935
C           7.0530854    -0.7641077    -1.2167053
H           7.8752281    -0.5881368    -1.9022792
C           5.7522024    -0.9791241    -1.6722358
C           5.0497072    -1.1899564     0.6075972
H           5.5298325    -0.9795578    -2.7356345
C           4.7258249    -1.1991476    -0.7588759
H           3.7175272    -1.3840350    -1.1069647
C          -1.9817135    -2.4097867    -0.3164435
H          -2.9997725    -2.6656480    -0.5919353
C          -1.3301355    -1.3590195    -0.9487331
N           6.2965959    -0.9962297     1.0577323
H          -1.8225121    -0.7822363    -1.7249776
C          -0.0124035    -1.0288460    -0.5940893
C           0.6636093     0.0383593    -1.2636491
N           1.2669451     0.8916398    -1.7790531
C           7.2649416    -0.7905614     0.1600903
C           0.6662165    -1.7557142     0.4194282
C          -0.0053266    -2.8138126     1.0499779
H           8.2616837    -0.6413754     0.5716193
H           0.5029978    -3.3665086     1.8268456
C          -1.3094666    -3.1291690     0.6757700
H          -1.8099235    -3.9523588     1.1780207
28
191_C13H10N4O_0-2-3-9 (-45,) energy =    -795.6496802
N           2.0181897    -1.4932931     0.7027618
H           2.3923475    -0.6817299     0.2249657
C           2.8537238    -2.1062329     1.6243294
N           4.1560854    -1.6002445     1.6396479
H           4.6455014    -1.8663211     2.4874250
O           2.4963258    -2.9458186     2.4353837
C           7.0041436    -0.5711082    -1.1915168
H           7.8028190    -0.2798787    -1.8654455
C           5.7325503    -0.8987577    -1.6607104
C           5.0550113    -1.2769690     0.6059789
H           5.5101712    -0.8776426    -2.7237945
C           4.7357886    -1.2674628    -0.7618926
H           3.7582431    -1.5571664    -1.1251430
C          -2.0171762    -2.3027858    -0.2544284
H          -3.0542642    -2.4993277    -0.5066506
C          -1.2988474    -1.3403836    -0.9514207
N           6.2786189    -0.9814788     1.0679464
H          -1.7571670    -0.7747533    -1.7562267
C           0.0436327    -1.0873967    -0.6269593
C           0.7865433    -0.1145962    -1.3657052
N           1.4440613     0.6584115    -1.9384639
C           7.2205863    -0.6433827     0.1834274
C           0.6808536    -1.8015362     0.4223486
C          -0.0583254    -2.7708061     1.1173721
H           8.1993315    -0.4185823     0.6037580
H           0.4182193    -3.3144624     1.9201017
C          -1.3860859    -3.0112810     0.7720875
H          -1.9381518    -3.7662437     1.3249644
28
191_C13H10N4O_0-2-3-9 (-30,) energy =    -795.6507045
N           2.0416221    -1.6124485     0.6352821
H           2.4590100    -0.8513777     0.1127038
C           2.8446270    -2.2308575     1.5830252
N           4.1765939    -1.8257302     1.5745278
H           4.6589210    -2.0878069     2.4264939
O           2.4413112    -3.0172209     2.4265352
C           6.9395560    -0.3871675    -1.1565431
H           7.7131621     0.0130718    -1.8032580
C           5.7112996    -0.8127365    -1.6604702
C           5.0482919    -1.3601467     0.5767597
H           5.4990464    -0.7631991    -2.7245528
C           4.7474413    -1.3225996    -0.7949525
H           3.8130428    -1.7022886    -1.1881039
C          -2.0568499    -2.1845264    -0.2249976
H          -3.1092947    -2.3198350    -0.4527183
C          -1.2824639    -1.3193605    -0.9861963
N           6.2347659    -0.9752393     1.0704730
H          -1.7115356    -0.7701300    -1.8180540
C           0.0798139    -1.1461516    -0.6930323
C           0.8782944    -0.2769757    -1.4996111
N           1.5800208     0.4087972    -2.1283248
C           7.1497299    -0.5099509     0.2162032
C           0.6816838    -1.8413769     0.3896762
C          -0.1141305    -2.7134504     1.1483370
H           8.1000616    -0.2182454     0.6599843
H           0.3355026    -3.2442529     1.9746956
C          -1.4610922    -2.8763288     0.8335666
H          -2.0566050    -3.5563460     1.4364054
28
191_C13H10N4O_0-2-3-9 (-15,) energy =    -795.6513034
N           2.0683598    -1.7149548     0.5855158
H           2.5173431    -1.0059269     0.0180476
C           2.8489697    -2.3294183     1.5544721
N           4.2049065    -2.0236701     1.5067848
H           4.6792685    -2.2587816     2.3706331
O           2.4145677    -3.0578296     2.4343818
C           6.8653938    -0.2333810    -1.1140437
H           7.6082120     0.2594070    -1.7323600
C           5.6888018    -0.7492917    -1.6552682
C           5.0461722    -1.4339333     0.5506670
H           5.4879963    -0.6807028    -2.7204053
C           4.7655972    -1.3788918    -0.8246741
H           3.8806687    -1.8386939    -1.2469128
C          -2.0740822    -2.0763762    -0.1733181
H          -3.1370136    -2.1584497    -0.3764262
C          -1.2655674    -1.2927969    -0.9855312
N           6.1866057    -0.9646791     1.0786810
H          -1.6780967    -0.7554773    -1.8333964
C           0.1101958    -1.1885388    -0.7241301
C           0.9412998    -0.4031708    -1.5820822
N           1.6685083     0.2132133    -2.2523997
C           7.0687866    -0.3903668     0.2565693
C           0.6921841    -1.8713577     0.3773894
C          -0.1383422    -2.6611588     1.1874059
H           7.9843095    -0.0339475     0.7255215
H           0.2961245    -3.1828189     2.0275157
C          -1.4986946    -2.7560916     0.9042416
H          -2.1208680    -3.3727744     1.5469903
28
191_C13H10N4O_0-2-3-9 (0,) energy =    -795.6514745
N           2.0263640    -1.7824320    -0.5791469
H           2.5783637    -1.1887788     0.0279976
C           2.6603478    -2.3030062    -1.6975013
N           4.0362582    -2.0961423    -1.7603952
H           4.3880767    -2.2396196    -2.7000535
O           2.0921074    -2.8987580    -2.6007601
C           6.8897670    -0.1509750     0.5281513
H           7.6687162     0.3885430     1.0565494
C           5.8529375    -0.7891117     1.2072680
C           4.9592780    -1.4560747    -0.9159093
H           5.8021552    -0.7732194     2.2919309
C           4.8798878    -1.4763272     0.4860694
H           4.1129477    -2.0376645     1.0064022
C          -2.0386558    -1.9870250     0.5596923
H          -3.0801946    -2.0294537     0.8617191
C          -1.0959700    -1.3862082     1.3829615
N           5.9676884    -0.8707939    -1.5783200
H          -1.3809210    -0.9551162     2.3372884
C           0.2520850    -1.3334787     0.9930972
C           1.2230231    -0.7418506     1.8597259
N           2.0602981    -0.2833036     2.5282491
C           6.9083206    -0.2473721    -0.8631397
C           0.6689107    -1.8816133    -0.2496153
C          -0.2955953    -2.4891374    -1.0683370
H           7.7147766     0.2031523    -1.4390884
H           0.0139222    -2.9106594    -2.0134261
C          -1.6255308    -2.5365280    -0.6575754
H          -2.3537048    -3.0107087    -1.3098522
28
191_C13H10N4O_0-2-3-9 (15,) energy =    -795.6513042
N           1.9802094    -1.6516722    -0.6237286
H           2.5017435    -0.9940582    -0.0565181
C           2.6305514    -2.1815381    -1.7291124
N           3.9838477    -1.8762381    -1.8255145
H           4.3461954    -2.0398921    -2.7574446
O           2.0853824    -2.8364788    -2.6052347
C           6.9622451    -0.2958485     0.5796683
H           7.7795250     0.1480540     1.1381793
C           5.8584317    -0.8571558     1.2198073
C           4.9417842    -1.3642842    -0.9366499
H           5.7920078    -0.8748202     2.3036942
C           4.8347328    -1.4209016     0.4627493
H           4.0069054    -1.9166357     0.9544221
C          -2.0338393    -2.1045469     0.6200622
H          -3.0628559    -2.2106936     0.9481987
C          -1.1245032    -1.3917375     1.3897170
N           6.0113136    -0.8509689    -1.5629742
H          -1.4232100    -0.9346371     2.3275830
C           0.2075607    -1.2565499     0.9662559
C           1.1455394    -0.5467299     1.7786324
N           1.9555256     0.0105872     2.4042759
C           6.9928881    -0.3419669    -0.8137861
C           0.6411806    -1.8349788    -0.2566959
C          -0.2897557    -2.5542140    -1.0220559
H           7.8457925     0.0532360    -1.3628947
H           0.0318154    -2.9964018    -1.9536012
C          -1.6036096    -2.6821391    -0.5780932
H          -2.3057294    -3.2427473    -1.1890485
28
191_C13H10N4O_0-2-3-9 (30,) energy =    -795.6507045
N           1.9623012    -1.5583252    -0.6704996
H           2.4460124    -0.8437028    -0.1395869
C           2.6367723    -2.0865000    -1.7620942
N           3.9614242    -1.6760230    -1.8851443
H           4.3317620    -1.8595052    -2.8105404
O           2.1266471    -2.7980403    -2.6141656
C           7.0527793    -0.4669253     0.5935315
H           7.9035356    -0.1205653     1.1707197
C           5.8951572    -0.9420563     1.2082067
C           4.9538288    -1.2948486    -0.9675346
H           5.8183508    -0.9872622     2.2907199
C           4.8276149    -1.3795016     0.4290386
H           3.9478889    -1.7975369     0.9014379
C          -1.9988893    -2.2272757     0.6434122
H          -3.0151672    -2.3881122     0.9885462
C          -1.1305304    -1.4278684     1.3745141
N           6.0710654    -0.8613527    -1.5704375
H          -1.4489331    -0.9562901     2.2986236
C           0.1851197    -1.2217589     0.9291671
C           1.0830858    -0.4222013     1.7024507
N           1.8617786     0.2097261     2.2959929
C           7.0884554    -0.4675980    -0.8001708
C           0.6427104    -1.8157422    -0.2773332
C          -0.2466251    -2.6223762    -1.0038482
H           7.9771722    -0.1326728    -1.3323119
H           0.0929510    -3.0759676    -1.9234867
C          -1.5443131    -2.8200019    -0.5381599
H          -2.2143604    -3.4478593    -1.1189399
28
191_C13H10N4O_0-2-3-9 (45,) energy =    -795.6496802
N           1.9312273    -1.4338287    -0.7237311
H           2.3666625    -0.6651894    -0.2272358
C           2.6412914    -1.9586944    -1.7930417
N           3.9341241    -1.4458405    -1.9270839
H           4.3119124    -1.6336604    -2.8496081
O           2.1805139    -2.7258843    -2.6234335
C           7.1202718    -0.6528571     0.6038619
H           7.9987191    -0.4173313     1.1952457
C           5.9158348    -1.0276768     1.1982419
C           4.9573196    -1.2093878    -0.9899568
H           5.8286686    -1.1012023     2.2785391
C           4.8122451    -1.3217748     0.4026621
H           3.8864440    -1.6478155     0.8588018
C          -1.9564709    -2.3474039     0.6571502
H          -2.9547665    -2.5712852     1.0191989
C          -1.1512738    -1.4457937     1.3403556
N           6.1148847    -0.8675091    -1.5740003
H          -1.5020098    -0.9556441     2.2428214
C           0.1412383    -1.1575881     0.8735791
C           0.9761156    -0.2491431     1.5958750
N           1.7043930     0.4743739     2.1472902
C           7.1621555    -0.6029579    -0.7883660
C           0.6379992    -1.7731796    -0.3059830
C          -0.1876720    -2.6819235    -0.9852312
H           8.0816388    -0.3365484    -1.3067591
H           0.1815228    -3.1502621    -1.8860007
C          -1.4629024    -2.9594093    -0.4986242
H          -2.0839701    -3.6660807    -1.0420472
28
191_C13H10N4O_0-2-3-9 (60,) energy =    -795.6481389
N           1.8852133    -1.3077400    -0.7393491
H           2.2675500    -0.4899788    -0.2785690
C           2.6415976    -1.8322273    -1.7740538
N           3.8956390    -1.2120377    -1.9153486
H           4.2691383    -1.3892892    -2.8432586
O           2.2474345    -2.6649521    -2.5732153
C           7.1709216    -0.8470145     0.6056557
H           8.0734909    -0.7271683     1.1954874
C           5.9363305    -1.1086933     1.2000850
C           4.9522963    -1.1226136    -0.9832771
H           5.8491125    -1.2037638     2.2787973
C           4.8023357    -1.2536020     0.4068981
H           3.8446992    -1.4741532     0.8611047
C          -1.9140745    -2.4591964     0.7046139
H          -2.8908881    -2.7440890     1.0820745
C          -1.1827378    -1.4642576     1.3399879
N           6.1338845    -0.8829293    -1.5674723
H          -1.5707774    -0.9606687     2.2194724
C           0.0818466    -1.0966690     0.8532524
C           0.8421991    -0.0884908     1.5238275
N           1.5099674     0.7197007     2.0324095
C           7.2082596    -0.7512772    -0.7838008
C           0.6240883    -1.7278688    -0.2972430
C          -0.1268746    -2.7303785    -0.9290370
H           8.1462860    -0.5607934    -1.3023854
H           0.2770377    -3.2098263    -1.8090230
C          -1.3754409    -3.0848456    -0.4233719
H          -1.9393271    -3.8636358    -0.9292107
28
191_C13H10N4O_0-2-3-9 (75,) energy =    -795.6459508
N           1.8253554    -1.1679206    -0.7098297
H           2.1480437    -0.3045973    -0.2875900
C           2.6385074    -1.6899323    -1.6980792
N           3.8450995    -0.9586735    -1.8420099
H           4.2005977    -1.0844472    -2.7869404
O           2.3312667    -2.5946669    -2.4534886
C           7.2109948    -1.0245599     0.5884556
H           8.1346669    -1.0192439     1.1574955
C           5.9722074    -1.2121284     1.2039160
C           4.9422988    -1.0181235    -0.9489676
H           5.9035703    -1.3591847     2.2782258
C           4.8126255    -1.2083618     0.4362732
H           3.8447581    -1.3537846     0.9007959
C          -1.8862126    -2.5374003     0.7685014
H          -2.8415629    -2.8785577     1.1541441
C          -1.2484339    -1.4479514     1.3476437
N           6.1233032    -0.8431595    -1.5531080
H          -1.6895937    -0.9253813     2.1902006
C          -0.0117827    -1.0069221     0.8506151
C           0.6526517     0.1024753     1.4610352
N           1.2425252     0.9957345     1.9210364
C           7.2234833    -0.8455811    -0.7926402
C           0.5962075    -1.6613236    -0.2526165
C          -0.0603125    -2.7587846    -0.8286721
H           8.1616208    -0.6999078    -1.3252500
H           0.3943347    -3.2560863    -1.6734626
C          -1.2828577    -3.1840745    -0.3138303
H          -1.7738228    -4.0362697    -0.7753719
28
191_C13H10N4O_0-2-3-9 (90,) energy =    -795.6433315
N           1.7817140    -1.0766709    -0.6868470
H           2.0465373    -0.1754667    -0.3047161
C           2.6671562    -1.6045577    -1.6022901
N           3.8239975    -0.7713701    -1.7425072
H           4.1367022    -0.8096328    -2.7111501
O           2.4694143    -2.5886671    -2.2895205
C           7.2849996    -1.2021246     0.5118387
H           8.2290263    -1.2872351     1.0397826
C           6.0630471    -1.4065267     1.1568153
C           4.9659514    -0.9627333    -0.9249069
H           6.0291194    -1.6570592     2.2135766
C           4.8788332    -1.2828933     0.4397674
H           3.9186758    -1.4298812     0.9218206
C          -1.8801631    -2.6008997     0.7622678
H          -2.8231656    -2.9825664     1.1402994
C          -1.3473616    -1.4250123     1.2752269
N           6.1274510    -0.7696622    -1.5575496
H          -1.8600139    -0.8740568     2.0570200
C          -0.1271154    -0.9306333     0.7882785
C           0.4239917     0.2741498     1.3269927
N           0.9180147     1.2483675     1.7317863
C           7.2535715    -0.8846431    -0.8434706
C           0.5715517    -1.6218182    -0.2354360
C           0.0205813    -2.8057305    -0.7464031
H           8.1768237    -0.7171896    -1.3952722
H           0.5456173    -3.3316261    -1.5310619
C          -1.1887789    -3.2810631    -0.2439743
H          -1.5978100    -4.2003629    -0.6536104
28
191_C13H10N4O_0-2-3-9 (105,) energy =    -795.6432163
N           1.7646043    -1.1439223    -0.4676260
H           1.9785667    -0.1770564    -0.2515976
C           2.7369621    -1.8616085    -1.1463332
N           3.8474148    -1.0657212    -1.5240379
H           3.6360865    -0.0800232    -1.6608562
O           2.6961590    -3.0631813    -1.3405793
C           7.4828036    -1.1660622     0.4608047
H           8.4401658    -1.1197681     0.9694643
C           6.8113177    -2.3779857     0.2740389
C           5.0764565    -1.1630612    -0.8277021
H           7.2418627    -3.3087026     0.6335980
C           5.5915268    -2.3934523    -0.3914257
H           5.0487464    -3.3110035    -0.5835387
C          -2.1256358    -2.2853781     0.7224542
H          -3.1260469    -2.5677441     1.0342965
C          -1.6834964    -0.9798664     0.8934601
N           5.7022065     0.0051196    -0.6611162
H          -2.3259589    -0.2258279     1.3364715
C          -0.3903632    -0.6135100     0.4884656
C           0.0604022     0.7334067     0.6544617
N           0.4862584     1.8126505     0.7605767
C           6.8863709    -0.0100463    -0.0342764
C           0.4814454    -1.5710295    -0.0931823
C           0.0233744    -2.8864244    -0.2548291
H           7.3705276     0.9582198     0.0784092
H           0.6854356    -3.6222022    -0.6880077
C          -1.2665138    -3.2259439     0.1474823
H          -1.6013858    -4.2504346     0.0111549
28
191_C13H10N4O_0-2-3-9 (120,) energy =    -795.6476747
N           1.6989146    -1.0898584    -0.3406602
H           1.8582890    -0.1059098    -0.1583368
C           2.7466488    -1.8059278    -0.9033520
N           3.8298473    -0.9871233    -1.2645386
H           3.6324874     0.0063275    -1.3484969
O           2.7642789    -3.0198390    -1.0225097
C           7.6648608    -1.2423464     0.2783480
H           8.6745561    -1.2317054     0.6757392
C           6.9550420    -2.4348589     0.1134979
C           5.1276215    -1.1487125    -0.7250092
H           7.4064342    -3.3872208     0.3783722
C           5.6669455    -2.4046025    -0.4085082
H           5.0881159    -3.3035429    -0.5770579
C          -2.2286739    -2.3193478     0.6133206
H          -3.2398039    -2.6238397     0.8636677
C          -1.8435987    -0.9926066     0.7550850
N           5.7902397     0.0024559    -0.5796952
H          -2.5417662    -0.2433418     1.1139551
C          -0.5363256    -0.5979376     0.4295687
C          -0.1419896     0.7696947     0.5659825
N           0.2427495     1.8660595     0.6531262
C           7.0361819    -0.0568536    -0.0922565
C           0.4082556    -1.5477409    -0.0413896
C           0.0065349    -2.8849852    -0.1740963
H           7.5469593     0.8989817     0.0082231
H           0.7231764    -3.6150758    -0.5214602
C          -1.2979086    -3.2525646     0.1479423
H          -1.5876310    -4.2936404     0.0356527
28
191_C13H10N4O_0-2-3-9 (135,) energy =    -795.6515878
N           1.6562937    -1.0310098    -0.2151725
H           1.7669858    -0.0340068    -0.0723881
C           2.7675958    -1.7388502    -0.6595933
N           3.8363743    -0.9021087    -0.9824417
H           3.6573254     0.0966049    -1.0205691
O           2.8235592    -2.9571065    -0.7264374
C           7.8092794    -1.3114686     0.1020683
H           8.8572013    -1.3385760     0.3825479
C           7.0556209    -2.4805369    -0.0275543
C           5.1784998    -1.1256346    -0.6034532
H           7.5096325    -3.4520952     0.1480573
C           5.7172060    -2.4043374    -0.3976669
H           5.0999943    -3.2827204    -0.5292429
C          -2.2912116    -2.3471220     0.5138399
H          -3.3083329    -2.6734947     0.7054279
C          -1.9547040    -1.0048188     0.6281181
N           5.8831965     0.0052453    -0.4902016
H          -2.6973273    -0.2643481     0.9072054
C          -0.6392486    -0.5824158     0.3789943
C          -0.2935815     0.8004828     0.4887431
N           0.0573291     1.9093741     0.5600322
C           7.1728214    -0.0984047    -0.1479495
C           0.3637076    -1.5190544     0.0123898
C           0.0094463    -2.8724302    -0.0941484
H           7.7151594     0.8418993    -0.0680635
H           0.7685974    -3.5927217    -0.3622929
C          -1.3032923    -3.2675554     0.1518915
H          -1.5545278    -4.3207329     0.0615347
28
191_C13H10N4O_0-2-3-9 (150,) energy =    -795.6544185
N           1.6203522    -0.9851806    -0.1105531
H           1.6982866     0.0185932     0.0035484
C           2.7821768    -1.6813332    -0.4327168
N           3.8479652    -0.8289046    -0.6884335
H           3.6822678     0.1717593    -0.6985964
O           2.8625301    -2.9003499    -0.4695865
C           7.9016719    -1.3526604    -0.0571844
H           8.9729858    -1.4067929     0.1067942
C           7.1145859    -2.5032652    -0.1408386
C           5.2125530    -1.1005844    -0.4675646
H           7.5648526    -3.4876653    -0.0451712
C           5.7450840    -2.3941133    -0.3586159
H           5.1005512    -3.2576016    -0.4442219
C          -2.3387113    -2.3714482     0.3941009
H          -3.3593320    -2.7157937     0.5264085
C          -2.0381825    -1.0196821     0.4939082
N           5.9501119     0.0139614    -0.3955173
H          -2.8124800    -0.2886285     0.7030717
C          -0.7177351    -0.5750383     0.3217683
C          -0.4100472     0.8176074     0.4180729
N          -0.0867619     1.9354312     0.4812291
C           7.2659622    -0.1214401    -0.1971550
C           0.3278136    -1.4973387     0.0472266
C           0.0084066    -2.8606800    -0.0465980
H           7.8320794     0.8068454    -0.1462580
H           0.7975240    -3.5708849    -0.2457546
C          -1.3094037    -3.2779518     0.1234062
H          -1.5322406    -4.3384513     0.0447916
28
191_C13H10N4O_0-2-3-9 (165,) energy =    -795.6560453
N           1.6009282    -0.9560735    -0.0358965
H           1.6493824     0.0540506     0.0284497
C           2.7946699    -1.6429143    -0.2467668
N           3.8657211    -0.7792846    -0.3982912
H           3.7171054     0.2227725    -0.3575252
O           2.8852157    -2.8616259    -0.2882586
C           7.9499579    -1.3945861    -0.2233457
H           9.0313695    -1.4710930    -0.1761275
C           7.1371796    -2.5283331    -0.2842445
C           5.2366852    -1.0869610    -0.3367811
H           7.5765830    -3.5222412    -0.2871645
C           5.7542001    -2.3912958    -0.3475726
H           5.0892243    -3.2411834    -0.4022881
C          -2.3536725    -2.3996234     0.3154488
H          -3.3738223    -2.7581443     0.4075560
C          -2.0823614    -1.0393569     0.3747714
N           5.9992141     0.0127281    -0.2817510
H          -2.8793485    -0.3157784     0.5125599
C          -0.7625332    -0.5760374     0.2551651
C          -0.4832692     0.8246227     0.3132650
N          -0.1803549     1.9493290     0.3512123
C           7.3252700    -0.1496707    -0.2280364
C           0.3124903    -1.4879073     0.0736703
C           0.0216708    -2.8599856     0.0178924
H           7.9102366     0.7672970    -0.1852778
H           0.8319941    -3.5614715    -0.1157350
C          -1.2956189    -3.2958729     0.1367879
H          -1.4953399    -4.3628488     0.0896089
28
191_C13H10N4O_0-2-3-9 (180,) energy =    -795.6565529
N           1.5909347    -0.9384395     0.0448156
H           1.6324162     0.0730751     0.0896223
C           2.7982144    -1.6262853    -0.0654512
N           3.8779494    -0.7634929    -0.0954118
H           3.7329790     0.2383655    -0.0454049
O           2.8888523    -2.8442945    -0.1272991
C           7.9518748    -1.3939976    -0.3890414
H           9.0315080    -1.4743234    -0.4630169
C           7.1320039    -2.5241966    -0.3827350
C           5.2435797    -1.0778518    -0.1986007
H           7.5637695    -3.5190055    -0.4526681
C           5.7512921    -2.3832925    -0.2864826
H           5.0812628    -3.2307768    -0.2784150
C          -2.3723584    -2.3891038     0.2221373
H          -3.3950398    -2.7492163     0.2686734
C          -2.1077658    -1.0270093     0.2681973
N           6.0133294     0.0186260    -0.2031182
H          -2.9125348    -0.3036464     0.3509953
C          -0.7846791    -0.5615046     0.2078911
C          -0.5117906     0.8408096     0.2549516
N          -0.2133104     1.9669056     0.2876463
C           7.3364992    -0.1478060    -0.2966864
C           0.3006107    -1.4729812     0.0994201
C           0.0161643    -2.8468883     0.0542178
H           7.9270303     0.7666162    -0.2971559
H           0.8337880    -3.5478206    -0.0277233
C          -1.3042871    -3.2849943     0.1154303
H          -1.4986674    -4.3533782     0.0785454
