28
191_C13H10N4O_2-3-9-11 (-165,) energy =    -795.6437879
N           1.5497675    -1.2416668    -0.3224274
H           1.5702916    -0.7964414    -1.2323069
C           2.7782757    -1.6027585     0.2424514
N           3.8284719    -1.0066580    -0.4624199
H           3.6019831    -0.2055446    -1.0355828
O           2.9021937    -2.3130998     1.2180074
C           7.8648230    -1.9143681    -0.3186194
H           8.9107829    -2.1985416    -0.2666550
C           7.4622504    -0.7067255    -0.8942360
C           5.1977807    -1.3123679    -0.3843704
H           8.1925916    -0.0161924    -1.3069606
C           6.1109780    -0.3902204    -0.9289614
H           5.7668716     0.5478606    -1.3572970
C          -2.3824258    -1.9697155     1.0342441
H          -3.3974111    -2.1501857     1.3733854
C          -2.1524356    -1.2700988    -0.1425260
N           5.5647005    -2.4756629     0.1504342
H          -2.9769299    -0.8927950    -0.7389279
C          -0.8388807    -1.0366601    -0.5801873
C          -0.5976651    -0.3089611    -1.7864791
N          -0.3214349     0.2753358    -2.7564563
C           6.8734640    -2.7525005     0.1860560
C           0.2709855    -1.5144103     0.1685434
C           0.0211898    -2.2222151     1.3550288
H           7.1356556    -3.7077610     0.6377915
H           0.8583734    -2.5983321     1.9249484
C          -1.2899430    -2.4377108     1.7713038
H          -1.4579483    -2.9887151     2.6925942
28
191_C13H10N4O_2-3-9-11 (-150,) energy =    -795.6441857
N           1.5981384    -1.0963820     0.2973003
H           1.7057238    -0.2568683     0.8544497
C           2.7666951    -1.6805892    -0.1984184
N           3.8900435    -1.1240744     0.4244059
H           3.7573828    -0.7413846     1.3509292
O           2.7978678    -2.5557679    -1.0385683
C           7.8383724    -1.6250853    -0.7140646
H           8.8577141    -1.7495913    -1.0648409
C           7.5505334    -1.4193771     0.6367701
C           5.2291272    -1.3266817     0.0429992
H           8.3460961    -1.3823033     1.3758812
C           6.2263521    -1.2762412     1.0321861
H           5.9655377    -1.1368943     2.0781334
C          -2.4461545    -2.0934333    -0.3956699
H          -3.4890512    -2.3406309    -0.5661345
C          -2.1049042    -1.0484915     0.4522242
N           5.4897153    -1.5018361    -1.2522510
H          -2.8687378    -0.4657856     0.9570477
C          -0.7553601    -0.7297231     0.6726800
C          -0.4003825     0.3391467     1.5527807
N          -0.0353574     1.1939004     2.2560354
C           6.7692975    -1.6624542    -1.6072861
C           0.2774607    -1.4649265     0.0302825
C          -0.0841646    -2.5170596    -0.8259574
H           6.9439282    -1.8153204    -2.6709618
H           0.6941687    -3.0743524    -1.3268592
C          -1.4290246    -2.8177561    -1.0253734
H          -1.6844213    -3.6357663    -1.6933710
28
191_C13H10N4O_2-3-9-11 (-135,) energy =    -795.6440412
N           1.5932594    -1.0137095     0.2775139
H           1.6773867    -0.1452798     0.7929744
C           2.7784262    -1.5794410    -0.1954233
N           3.8877704    -0.9500305     0.3828519
H           3.7604488    -0.5727148     1.3129837
O           2.8400652    -2.4933920    -0.9926257
C           7.8152367    -1.6895359    -0.7033947
H           8.8302796    -1.8681771    -1.0433682
C           7.5037088    -1.6184068     0.6550527
C           5.2242908    -1.2300425     0.0248180
H           8.2740430    -1.7473371     1.4103541
C           6.1837426    -1.3995231     1.0344022
H           5.8981165    -1.3683758     2.0824209
C          -2.4175758    -2.1735751    -0.3550492
H          -3.4520017    -2.4627910    -0.5103824
C          -2.1093201    -1.0826813     0.4463041
N           5.5091299    -1.2794041    -1.2768619
H          -2.8909520    -0.5050008     0.9291949
C          -0.7706734    -0.7096107     0.6473314
C          -0.4507132     0.4070347     1.4803128
N          -0.1153588     1.3028137     2.1462304
C           6.7781295    -1.5225477    -1.6206683
C           0.2845356    -1.4361905     0.0322886
C          -0.0438803    -2.5353185    -0.7769627
H           6.9744213    -1.5700994    -2.6904332
H           0.7516919    -3.0867245    -1.2569550
C          -1.3783402    -2.8892960    -0.9579043
H          -1.6078726    -3.7430149    -1.5896315
28
191_C13H10N4O_2-3-9-11 (-120,) energy =    -795.6431733
N           1.6030812    -0.9373306     0.2536601
H           1.6639497    -0.0447725     0.7297972
C           2.8012610    -1.4852798    -0.2034103
N           3.8966291    -0.7857426     0.3187593
H           3.7737923    -0.3983997     1.2463642
O           2.8896631    -2.4350983    -0.9564248
C           7.7977087    -1.7586877    -0.6957263
H           8.8070996    -1.9919460    -1.0194233
C           7.4334253    -1.8167643     0.6493978
C           5.2306537    -1.1391161    -0.0085691
H           8.1531008    -2.1067836     1.4099599
C           6.1206929    -1.5197975     1.0041929
H           5.7887123    -1.5856845     2.0365630
C          -2.3718151    -2.2524761    -0.2958539
H          -3.3972243    -2.5814541    -0.4305058
C          -2.0937492    -1.1225081     0.4612045
N           5.5662035    -1.0714868    -1.2972026
H          -2.8904575    -0.5533678     0.9293742
C          -0.7668006    -0.6977493     0.6357647
C          -0.4781664     0.4593065     1.4238988
N          -0.1697783     1.3901395     2.0537391
C           6.8221771    -1.3928685    -1.6236583
C           0.3069114    -1.4114682     0.0382380
C           0.0089405    -2.5506191    -0.7261290
H           7.0616962    -1.3405502    -2.6842804
H           0.8191570    -3.0928239    -1.1919999
C          -1.3142016    -2.9555905    -0.8812790
H          -1.5200751    -3.8396301    -1.4785341
28
191_C13H10N4O_2-3-9-11 (-105,) energy =    -795.6429866
N           1.6229963    -0.9742769     0.4185259
H           1.6534469    -0.1099577     0.9468750
C           2.8416395    -1.5973514     0.1614894
N           3.9245446    -0.8234816     0.5990590
H           3.7614285     0.1786689     0.5482356
O           2.9667553    -2.7038396    -0.3320463
C           7.7197936    -1.6764957    -0.8753355
H           8.6997727    -1.8607378    -1.3046706
C           7.4020122    -2.0992789     0.4146757
C           5.2250074    -1.1646144     0.0865460
H           8.1332188    -2.6218736     1.0249833
C           6.1294355    -1.8289729     0.9148099
H           5.8280821    -2.1256649     1.9132549
C          -2.3158171    -2.2658130    -0.3878748
H          -3.3322378    -2.5866880    -0.5922488
C          -2.0803687    -1.0697699     0.2763052
N           5.5195315    -0.7337652    -1.1405603
H          -2.9020420    -0.4391090     0.6002910
C          -0.7651104    -0.6548139     0.5404769
C          -0.5222287     0.5778231     1.2223136
N          -0.2516470     1.5687784     1.7728093
C           6.7470627    -0.9933539    -1.6063995
C           0.3405506    -1.4496858     0.1345129
C           0.0857116    -2.6565775    -0.5358024
H           6.9609318    -0.6326684    -2.6107676
H           0.9211665    -3.2690272    -0.8428200
C          -1.2268421    -3.0469446    -0.7874501
H          -1.3988528    -3.9852795    -1.3076524
28
191_C13H10N4O_2-3-9-11 (-90,) energy =    -795.6455102
N           1.6160189    -0.9530064     0.3688248
H           1.6435978    -0.0541943     0.8366031
C           2.8368356    -1.5834064     0.1512170
N           3.9157619    -0.7659430     0.5250219
H           3.7443884     0.2229140     0.3590469
O           2.9699672    -2.7219613    -0.2611782
C           7.7412763    -1.6210953    -0.8513379
H           8.7369477    -1.7928786    -1.2482144
C           7.3078501    -2.2464717     0.3185888
C           5.2172040    -1.1216601     0.0403516
H           7.9643251    -2.9176631     0.8652001
C           6.0252283    -1.9792876     0.7893601
H           5.6429595    -2.4225057     1.7019700
C          -2.3165796    -2.3230386    -0.3326307
H          -3.3314638    -2.6639411    -0.5104380
C          -2.0871293    -1.0807094     0.2429643
N           5.6228488    -0.4966663    -1.0651919
H          -2.9120137    -0.4334102     0.5229198
C          -0.7740036    -0.6396639     0.4727844
C          -0.5380041     0.6404958     1.0635558
N          -0.2745566     1.6705146     1.5407897
C           6.8658232    -0.7487004    -1.4963867
C           0.3353035    -1.4552602     0.1224042
C           0.0867967    -2.7087811    -0.4582523
H           7.1709548    -0.2231065    -2.3992169
H           0.9251220    -3.3371954    -0.7221125
C          -1.2238994    -3.1244315    -0.6777065
H          -1.3912040    -4.0989364    -1.1282204
28
191_C13H10N4O_2-3-9-11 (-75,) energy =    -795.6486999
N           1.6168271    -0.9420494     0.3286799
H           1.6460277    -0.0065297     0.7179079
C           2.8354943    -1.5884964     0.1554705
N           3.9160651    -0.7481517     0.4656845
H           3.7442500     0.2339080     0.2640091
O           2.9651187    -2.7548913    -0.1734451
C           7.7775866    -1.5655321    -0.8060053
H           8.7903426    -1.7165633    -1.1660748
C           7.2325781    -2.3750946     0.1933143
C           5.2200864    -1.1017587     0.0097244
H           7.8181104    -3.1738057     0.6399864
C           5.9352410    -2.1304107     0.6306352
H           5.4712985    -2.7189051     1.4134251
C          -2.3204147    -2.3585143    -0.2444572
H          -3.3364866    -2.7109374    -0.3900295
C          -2.0869487    -1.0744386     0.2290025
N           5.7311782    -0.3037839    -0.9285920
H          -2.9097916    -0.4056137     0.4600272
C          -0.7723774    -0.6184646     0.4170578
C          -0.5321572     0.7040981     0.9035929
N          -0.2645118     1.7679367     1.2968453
C           6.9902718    -0.5390436    -1.3226374
C           0.3342912    -1.4611598     0.1279668
C           0.0818997    -2.7565492    -0.3496294
H           7.3803862     0.1304243    -2.0868291
H           0.9180195    -3.4052358    -0.5671801
C          -1.2303505    -3.1865880    -0.5290670
H          -1.4007651    -4.1937028    -0.8995345
28
191_C13H10N4O_2-3-9-11 (-60,) energy =    -795.6517753
N           1.6096098    -0.9318656     0.2718551
H           1.6406989     0.0330349     0.5808456
C           2.8262342    -1.5905836     0.1329762
N           3.9078889    -0.7374944     0.3799199
H           3.7414504     0.2467134     0.1874009
O           2.9485873    -2.7769810    -0.1223119
C           7.8177417    -1.5041163    -0.7492926
H           8.8483669    -1.6338399    -1.0638441
C           7.1742277    -2.4532439     0.0490535
C           5.2221344    -1.0804435    -0.0304867
H           7.6984538    -3.3451721     0.3808803
C           5.8570538    -2.2372158     0.4379422
H           5.3194979    -2.9398945     1.0618898
C          -2.3349333    -2.3820420    -0.1479327
H          -3.3529375    -2.7427484    -0.2543505
C          -2.0948498    -1.0660016     0.2235652
N           5.8256587    -0.1527396    -0.7765692
H          -2.9143643    -0.3801417     0.4126066
C          -0.7778604    -0.5993179     0.3611235
C          -0.5305670     0.7558189     0.7432568
N          -0.2560748     1.8455791     1.0516542
C           7.1015383    -0.3698257    -1.1228494
C           0.3247314    -1.4634354     0.1240276
C           0.0656718    -2.7907913    -0.2511427
H           7.5647981     0.4063801    -1.7288730
H           0.8983480    -3.4553384    -0.4301805
C          -1.2490148    -3.2311276    -0.3815861
H          -1.4245144    -4.2631530    -0.6725710
28
191_C13H10N4O_2-3-9-11 (-45,) energy =    -795.6541073
N           1.5999013    -0.9366105     0.2145372
H           1.6355492     0.0456768     0.4619710
C           2.8138273    -1.6061055     0.0946265
N           3.8952146    -0.7433170     0.2638389
H           3.7296152     0.2440463     0.0931155
O           2.9255310    -2.8067017    -0.0962128
C           7.8633387    -1.4585777    -0.6622816
H           8.9122460    -1.5690940    -0.9178691
C           7.1455461    -2.4941297    -0.0587369
C           5.2262896    -1.0761498    -0.0728561
H           7.6299707    -3.4383316     0.1745898
C           5.8052678    -2.3083375     0.2612680
H           5.2125890    -3.0829077     0.7286962
C          -2.3537615    -2.3983062    -0.0508348
H          -3.3741674    -2.7616055    -0.1180891
C          -2.1046757    -1.0633032     0.2378709
N           5.8997656    -0.0682939    -0.6360193
H          -2.9193909    -0.3649828     0.4000919
C          -0.7846405    -0.5931731     0.3247992
C          -0.5274332     0.7813512     0.6215502
N          -0.2442268     1.8864239     0.8596459
C           7.1931594    -0.2655259    -0.9199759
C           0.3121674    -1.4730630     0.1202416
C           0.0438980    -2.8195107    -0.1713352
H           7.7099739     0.5767013    -1.3762091
H           0.8716170    -3.4962892    -0.3254615
C          -1.2737206    -3.2628845    -0.2526162
H          -1.4561995    -4.3097784    -0.4790268
28
191_C13H10N4O_2-3-9-11 (-30,) energy =    -795.6555603
N           1.5926629    -0.9447008     0.1510386
H           1.6337674     0.0521274     0.3293551
C           2.8039512    -1.6235026     0.0440723
N           3.8862942    -0.7605792     0.1455542
H           3.7271719     0.2352193     0.0340934
O           2.9043895    -2.8334176    -0.0939274
C           7.9034476    -1.4215753    -0.5773507
H           8.9666827    -1.5130991    -0.7742589
C           7.1358042    -2.5185836    -0.1799391
C           5.2327948    -1.0808316    -0.1161674
H           7.5941543    -3.4958212    -0.0545720
C           5.7765519    -2.3606646     0.0688962
H           5.1463011    -3.1838590     0.3742106
C          -2.3705678    -2.4024082     0.0442063
H          -3.3932022    -2.7646815     0.0176308
C          -2.1115667    -1.0532546     0.2446926
N           5.9533821    -0.0155488    -0.4861984
H          -2.9206702    -0.3422706     0.3773161
C          -0.7884815    -0.5850157     0.2789700
C          -0.5217066     0.8042152     0.4844435
N          -0.2293370     1.9205446     0.6471748
C           7.2604796    -0.1932278    -0.7086619
C           0.3020310    -1.4806822     0.1104882
C           0.0234055    -2.8414071    -0.0921244
H           7.8128920     0.6958895    -1.0071038
H           0.8453926    -3.5304546    -0.2195005
C          -1.2971222    -3.2825460    -0.1223812
H          -1.4872482    -4.3406209    -0.2801129
28
191_C13H10N4O_2-3-9-11 (-15,) energy =    -795.6563234
N           1.5975029    -0.9504090     0.0876751
H           1.6400030     0.0558315     0.2001301
C           2.8061477    -1.6360355    -0.0162438
N           3.8881460    -0.7736773     0.0144506
H           3.7357948     0.2277794    -0.0268087
O           2.8989680    -2.8517439    -0.1077395
C           7.9414163    -1.4095423    -0.4884077
H           9.0151082    -1.4918073    -0.6224829
C           7.1400729    -2.5349386    -0.2855257
C           5.2465931    -1.0882197    -0.1660037
H           7.5809362    -3.5277379    -0.2555346
C           5.7670581    -2.3904007    -0.1146983
H           5.1111168    -3.2346925     0.0412057
C          -2.3688619    -2.4025588     0.1320227
H          -3.3923910    -2.7630638     0.1440533
C          -2.1040403    -1.0452749     0.2549737
N           5.9987478     0.0038149    -0.3549181
H          -2.9094431    -0.3261876     0.3644291
C          -0.7798654    -0.5791596     0.2393081
C          -0.5065520     0.8182378     0.3650164
N          -0.2079934     1.9405684     0.4620991
C           7.3158522    -0.1652825    -0.5109115
C           0.3060762    -1.4852779     0.0984291
C           0.0214564    -2.8542791    -0.0252392
H           7.8925791     0.7454955    -0.6615542
H           0.8397834    -3.5511120    -0.1316428
C          -1.3000626    -3.2930859    -0.0070965
H          -1.4947011    -4.3576224    -0.1042938
28
191_C13H10N4O_2-3-9-11 (0,) energy =    -795.6565529
N           1.5898844    -0.9375550     0.0408103
H           1.6309341     0.0739968     0.0854754
C           2.7972631    -1.6253565    -0.0682434
N           3.8768738    -0.7623762    -0.0992398
H           3.7321542     0.2394820    -0.0485280
O           2.8882491    -2.8434697    -0.1277985
C           7.9511862    -1.3931628    -0.3860895
H           9.0309220    -1.4736727    -0.4582861
C           7.1312357    -2.5232895    -0.3831319
C           5.2426335    -1.0768399    -0.1998509
H           7.5626183    -3.5182066    -0.4539727
C           5.7503948    -2.3821777    -0.2891472
H           5.0802013    -3.2295504    -0.2836413
C          -2.3729307    -2.3889748     0.2251756
H          -3.3954640    -2.7492843     0.2733878
C          -2.1085128    -1.0268250     0.2702707
N           6.0125001     0.0195788    -0.2012469
H          -2.9133189    -0.3036082     0.3539449
C          -0.7856073    -0.5610490     0.2079084
C          -0.5126204     0.8412781     0.2541065
N          -0.2128843     1.9670446     0.2867473
C           7.3357498    -0.1470454    -0.2927914
C           0.2997485    -1.4723192     0.0980630
C           0.0154280    -2.8462928     0.0537525
H           7.9263906     0.7672993    -0.2907590
H           0.8331480    -3.5469957    -0.0290190
C          -1.3048281    -3.2846571     0.1171902
H          -1.4990257    -4.3530943     0.0809869
28
191_C13H10N4O_2-3-9-11 (15,) energy =    -795.6563234
N           1.5902926    -0.9449171    -0.0118894
H           1.6243559     0.0675393    -0.0391491
C           2.7985240    -1.6301538    -0.1229817
N           3.8727884    -0.7623711    -0.2137696
H           3.7327229     0.2305890    -0.0646396
O           2.8953551    -2.8486387    -0.1521626
C           7.9534768    -1.4175626    -0.2862676
H           9.0350273    -1.5052754    -0.2969891
C           7.1265403    -2.5250466    -0.4849456
C           5.2413300    -1.0840787    -0.2351950
H           7.5544127    -3.5088077    -0.6582982
C           5.7437863    -2.3736333    -0.4671010
H           5.0686185    -3.2044622    -0.6129236
C          -2.3582503    -2.4091906     0.3179086
H          -3.3771114    -2.7729038     0.4036815
C          -2.1032631    -1.0449178     0.2835195
N           6.0175144    -0.0088553    -0.0470776
H          -2.9118194    -0.3233675     0.3413560
C          -0.7850719    -0.5747969     0.1726298
C          -0.5220573     0.8297784     0.1380338
N          -0.2319135     1.9579849     0.1040414
C           7.3427837    -0.1837503    -0.0746446
C           0.3047725    -1.4837711     0.0936459
C           0.0301316    -2.8598956     0.1302034
H           7.9390754     0.7133340     0.0818709
H           0.8512235    -3.5589624     0.0696952
C          -1.2855832    -3.3025828     0.2407522
H          -1.4725153    -4.3726029     0.2668180
28
191_C13H10N4O_2-3-9-11 (30,) energy =    -795.6555590
N           1.5796345    -0.9329197    -0.0737914
H           1.6045143     0.0759922    -0.1667045
C           2.7903458    -1.6126510    -0.1813828
N           3.8565135    -0.7389558    -0.3424384
H           3.7184534     0.2422686    -0.1243755
O           2.8998429    -2.8295256    -0.1645999
C           7.9292066    -1.4395263    -0.1945475
H           9.0082754    -1.5419901    -0.1425161
C           7.1113157    -2.5013418    -0.5871773
C           5.2232485    -1.0744478    -0.2827591
H           7.5450862    -3.4609050    -0.8553016
C           5.7324166    -2.3297341    -0.6473253
H           5.0640513    -3.1263339    -0.9419757
C          -2.3469821    -2.4153305     0.4061623
H          -3.3600154    -2.7842496     0.5302227
C          -2.1076045    -1.0522945     0.2953424
N           5.9910952    -0.0421329     0.0858350
H          -2.9227879    -0.3367727     0.3305824
C          -0.7968653    -0.5756444     0.1349081
C          -0.5507375     0.8279118     0.0218211
N          -0.2752943     1.9560064    -0.0766113
C           7.3148741    -0.2312643     0.1251215
C           0.3011270    -1.4765862     0.0828034
C           0.0423005    -2.8514290     0.1971771
H           7.9055471     0.6311516     0.4286610
H           0.8697940    -3.5444792     0.1570692
C          -1.2662243    -3.3008001     0.3557707
H          -1.4409346    -4.3697601     0.4415050
28
191_C13H10N4O_2-3-9-11 (45,) energy =    -795.6541074
N           1.5785556    -0.9201446    -0.1362056
H           1.5889894     0.0803846    -0.2981173
C           2.7938913    -1.5911214    -0.2309492
N           3.8501567    -0.7109034    -0.4587668
H           3.7133427     0.2565566    -0.1817138
O           2.9218319    -2.8032906    -0.1630449
C           7.8991703    -1.4847234    -0.1104145
H           8.9713216    -1.6120567    -0.0007564
C           7.1042119    -2.4662821    -0.7074555
C           5.2111611    -1.0651251    -0.3243393
H           7.5495006    -3.3834711    -1.0830890
C           5.7353312    -2.2598376    -0.8371839
H           5.0833627    -2.9929193    -1.2924484
C          -2.3187350    -2.4198858     0.4976224
H          -3.3245791    -2.7930516     0.6612227
C          -2.1000063    -1.0632758     0.2992123
N           5.9567891    -0.1077411     0.2360050
H          -2.9243835    -0.3575083     0.3041672
C          -0.7987401    -0.5805477     0.0876750
C          -0.5730548     0.8162449    -0.1161747
N          -0.3157246     1.9395886    -0.2892727
C           7.2745078    -0.3226961     0.3350121
C           0.3098015    -1.4693792     0.0726533
C           0.0722896    -2.8377496     0.2753207
H           7.8502078     0.4783625     0.7948693
H           0.9086550    -3.5212841     0.2626378
C          -1.2271321    -3.2933205     0.4833514
H          -1.3858866    -4.3571035     0.6373225
28
191_C13H10N4O_2-3-9-11 (60,) energy =    -795.6517759
N           1.5809145    -0.9100456    -0.1946175
H           1.5784494     0.0784706    -0.4189254
C           2.8012398    -1.5722732    -0.2695763
N           3.8478729    -0.6946968    -0.5744022
H           3.7127986     0.2673621    -0.2749806
O           2.9479425    -2.7759188    -0.1376142
C           7.8643918    -1.5381731    -0.0224020
H           8.9257535    -1.6900540     0.1460888
C           7.1190202    -2.4155488    -0.8142272
C           5.2013509    -1.0658875    -0.3658994
H           7.5920964    -3.2713315    -1.2878118
C           5.7645199    -2.1729011    -1.0124240
H           5.1479689    -2.8199641    -1.6233618
C          -2.2870863    -2.4121747     0.5932811
H          -3.2854833    -2.7862187     0.7959154
C          -2.0881647    -1.0671728     0.3121818
N           5.9002931    -0.2053189     0.3774378
H          -2.9208891    -0.3715913     0.2902950
C          -0.7965296    -0.5832174     0.0501611
C          -0.5915205     0.8017007    -0.2388979
N          -0.3518718     1.9159194    -0.4820390
C           7.2084588    -0.4454863     0.5387189
C           0.3219752    -1.4591544     0.0677516
C           0.1046096    -2.8158579     0.3538523
H           7.7495445     0.2760103     1.1478687
H           0.9492372    -3.4892760     0.3660164
C          -1.1854714    -3.2729199     0.6109292
H          -1.3288325    -4.3275654     0.8293806
28
191_C13H10N4O_2-3-9-11 (75,) energy =    -795.6486992
N           1.5784645    -0.9121109    -0.2472813
H           1.5641542     0.0549471    -0.5508019
C           2.8053581    -1.5646809    -0.2888838
N           3.8427705    -0.6947683    -0.6596240
H           3.7055992     0.2650831    -0.3521333
O           2.9688664    -2.7550302    -0.0846513
C           7.8295456    -1.6007891     0.0354804
H           8.8788603    -1.7776352     0.2495278
C           7.1571830    -2.3231389    -0.9530315
C           5.1920187    -1.0801596    -0.4050182
H           7.6754369    -3.0773967    -1.5385522
C           5.8163270    -2.0473977    -1.1985882
H           5.2530643    -2.5676159    -1.9643459
C          -2.2639289    -2.3957378     0.6872182
H          -3.2556535    -2.7654245     0.9272448
C          -2.0843310    -1.0732518     0.3047698
N           5.8228333    -0.3643393     0.5265839
H          -2.9257775    -0.3909812     0.2396038
C          -0.8011525    -0.5951878    -0.0055026
C          -0.6167489     0.7669050    -0.3982814
N          -0.3948466     1.8631241    -0.7255323
C           7.1203014    -0.6270172     0.7349592
C           0.3282605    -1.4541436     0.0658570
C           0.1303322    -2.7883394     0.4538944
H           7.6083843    -0.0247774     1.4987730
H           0.9833826    -3.4492192     0.5060901
C          -1.1515067    -3.2398360     0.7575578
H          -1.2798636    -4.2769136     1.0551436
28
191_C13H10N4O_2-3-9-11 (90,) energy =    -795.6455093
N           1.5750332    -0.9226211    -0.2912022
H           1.5491096     0.0141002    -0.6776186
C           2.8098827    -1.5630362    -0.2864628
N           3.8374028    -0.7094728    -0.7205080
H           3.6947764     0.2598174    -0.4467383
O           2.9876035    -2.7328616     0.0032630
C           7.8006395    -1.6636737     0.0777033
H           8.8375072    -1.8657412     0.3275159
C           7.2191039    -2.1847868    -1.0789816
C           5.1877305    -1.1001148    -0.4388791
H           7.7963298    -2.8013726    -1.7622821
C           5.8888791    -1.8834054    -1.3576711
H           5.3913661    -2.2453209    -2.2503602
C          -2.2459041    -2.3696449     0.7776205
H          -3.2322162    -2.7302768     1.0514018
C          -2.0834563    -1.0801162     0.2897349
N           5.7337421    -0.5741452     0.6576786
H          -2.9331106    -0.4148173     0.1745172
C          -0.8071804    -0.6137844    -0.0642048
C          -0.6403585     0.7148793    -0.5645184
N          -0.4334320     1.7844818    -0.9783109
C           7.0197976    -0.8566197     0.9039420
C           0.3326246    -1.4513378     0.0697146
C           0.1518321    -2.7525659     0.5640356
H           7.4399821    -0.4123439     1.8042586
H           1.0128571    -3.3976025     0.6633662
C          -1.1232043    -3.1926640     0.9096722
H          -1.2381846    -4.2040397     1.2898094
28
191_C13H10N4O_2-3-9-11 (105,) energy =    -795.6429863
N           1.5740269    -0.9392635    -0.3412932
H           1.5413749    -0.0320451    -0.7918801
C           2.8119417    -1.5757059    -0.2965722
N           3.8351011    -0.7593414    -0.7962026
H           3.6854893     0.2331280    -0.6345872
O           2.9922550    -2.7209640     0.0768351
C           7.7815640    -1.7204519     0.1022809
H           8.8069337    -1.9371387     0.3856522
C           7.3004106    -2.0267585    -1.1699290
C           5.1880205    -1.1378924    -0.4855867
H           7.9454003    -2.4879089    -1.9126062
C           5.9763328    -1.7195804    -1.4783578
H           5.5492012    -1.9265874    -2.4532657
C          -2.2372720    -2.3198669     0.8414894
H          -3.2212730    -2.6633463     1.1441499
C          -2.0816137    -1.0686268     0.2607298
N           5.6381843    -0.8179416     0.7281545
H          -2.9343324    -0.4166814     0.1004722
C          -0.8083242    -0.6243050    -0.1306723
C          -0.6470579     0.6649368    -0.7266231
N          -0.4431410     1.7020320    -1.2176420
C           6.9132770    -1.1116585     1.0093599
C           0.3355250    -1.4454462     0.0600832
C           0.1613941    -2.7081763     0.6483362
H           7.2547948    -0.8418795     2.0069438
H           1.0256967    -3.3405007     0.7915504
C          -1.1106589    -3.1268396     1.0292344
H          -1.2203265    -4.1083394     1.4823370
28
191_C13H10N4O_2-3-9-11 (120,) energy =    -795.6431699
N           1.5758947    -0.9141037    -0.1685479
H           1.5786733     0.0178689    -0.5666463
C           2.8182517    -1.4960594     0.0816248
N           3.8437668    -0.7484021    -0.5112635
H           3.6050625    -0.2834261    -1.3787057
O           2.9940683    -2.5095407     0.7288317
C           7.8367962    -1.7864513    -0.0906228
H           8.8776263    -2.0419741     0.0810720
C           7.3040538    -1.7280946    -1.3783513
C           5.2061946    -1.1225792    -0.3883327
H           7.9189479    -1.9463594    -2.2471372
C           5.9585885    -1.4080852    -1.5352568
H           5.4977612    -1.3844434    -2.5188154
C          -2.3032783    -2.3022943     0.7531358
H          -3.3051793    -2.6492238     0.9847464
C          -2.1178433    -1.1072239     0.0713286
N           5.7032102    -1.1665782     0.8480271
H          -2.9647631    -0.5046092    -0.2407906
C          -0.8216655    -0.6585536    -0.2291935
C          -0.6279681     0.5660074    -0.9407105
N          -0.3959504     1.5511671    -1.5185257
C           6.9887297    -1.5084721     0.9817431
C           0.3151827    -1.4150772     0.1635092
C           0.1110615    -2.6199672     0.8542872
H           7.3612467    -1.5485410     2.0037943
H           0.9713447    -3.1952959     1.1649211
C          -1.1836713    -3.0472555     1.1367865
H          -1.3165958    -3.9825172     1.6736808
28
191_C13H10N4O_2-3-9-11 (135,) energy =    -795.6440421
N           1.5699495    -0.9907102    -0.2018075
H           1.5918319    -0.0803253    -0.6463933
C           2.8018323    -1.5901668     0.0654547
N           3.8328247    -0.9045879    -0.5890671
H           3.5894799    -0.4454704    -1.4572753
O           2.9578219    -2.5723378     0.7623159
C           7.8627457    -1.7209272    -0.0891077
H           8.9116737    -1.9249950     0.1005101
C           7.3798648    -1.5263750    -1.3838768
C           5.2021224    -1.2101387    -0.4327198
H           8.0454256    -1.5808225    -2.2409654
C           6.0235010    -1.2804606    -1.5681327
H           5.6060784    -1.1537972    -2.5634179
C          -2.3347692    -2.2270428     0.8250948
H          -3.3428653    -2.5351545     1.0831961
C          -2.1246487    -1.0692930     0.0883723
N           5.6513456    -1.3776334     0.8113900
H          -2.9581570    -0.4573719    -0.2412589
C          -0.8201821    -0.6715657    -0.2459198
C          -0.6017303     0.5145974    -1.0130266
N          -0.3482838     1.4666030    -1.6357453
C           6.9524566    -1.6444584     0.9646294
C           0.3004662    -1.4415565     0.1673953
C           0.0713581    -2.6082936     0.9137281
H           7.2839872    -1.7895501     1.9913537
H           0.9185130    -3.1938400     1.2406377
C          -1.2313883    -2.9852914     1.2292167
H          -1.3836519    -3.8916357     1.8088389
28
191_C13H10N4O_2-3-9-11 (150,) energy =    -795.6441856
N           1.5656471    -1.0711333    -0.2267941
H           1.6065022    -0.1850123    -0.7165674
C           2.7833151    -1.6920056     0.0634108
N           3.8221573    -1.0757603    -0.6442369
H           3.5753719    -0.6123982    -1.5084552
O           2.9142448    -2.6396627     0.8101161
C           7.8804440    -1.6553952    -0.0663906
H           8.9352065    -1.8054444     0.1400228
C           7.4244705    -1.3307663    -1.3456190
C           5.1976540    -1.3043110    -0.4554402
H           8.1195752    -1.2227830    -2.1737181
C           6.0615277    -1.1597423    -1.5545871
H           5.6706227    -0.9291943    -2.5422413
C          -2.3645250    -2.1514849     0.8770907
H          -3.3788018    -2.4197240     1.1547378
C          -2.1278188    -1.0337766     0.0884481
N           5.6195484    -1.5935530     0.7752148
H          -2.9464613    -0.4140450    -0.2631081
C          -0.8152582    -0.6879059    -0.2708053
C          -0.5692220     0.4566444    -1.0908860
N          -0.2919407     1.3724570    -1.7563302
C           6.9329283    -1.7781799     0.9482312
C           0.2869139    -1.4697840     0.1695160
C           0.0308805    -2.5954363     0.9683938
H           7.2404563    -2.0248924     1.9630187
H           0.8636979    -3.1892599     1.3163918
C          -1.2795628    -2.9215498     1.3078429
H          -1.4526109    -3.7968175     1.9279675
28
191_C13H10N4O_2-3-9-11 (165,) energy =    -795.6437872
N           1.5555022    -1.1565193    -0.2565013
H           1.6075264    -0.3073413    -0.8067067
C           2.7645833    -1.7771989     0.0772765
N           3.8111180    -1.2342001    -0.6748048
H           3.5627659    -0.7395248    -1.5205142
O           2.8747581    -2.6726353     0.8882485
C           7.8868416    -1.6114328    -0.0590986
H           8.9462649    -1.7181432     0.1499730
C           7.4287001    -1.1440218    -1.2933793
C           5.1913074    -1.3914578    -0.4639514
H           8.1265530    -0.8741729    -2.0812793
C           6.0619825    -1.0324845    -1.5098804
H           5.6732580    -0.6847037    -2.4637244
C          -2.3924013    -2.0832081     0.9230730
H          -3.4110784    -2.3125117     1.2188840
C          -2.1339926    -1.0148619     0.0751602
N           5.6133719    -1.8206948     0.7241359
H          -2.9398566    -0.3955011    -0.3053978
C          -0.8156284    -0.7195786    -0.3071596
C          -0.5468890     0.3740186    -1.1873060
N          -0.2482413     1.2457831    -1.9010313
C           6.9344208    -1.9336886     0.9048093
C           0.2709027    -1.5029851     0.1687590
C          -0.0073177    -2.5784366     1.0273222
H           7.2414353    -2.2952440     1.8847857
H           0.8130249    -3.1728072     1.4026320
C          -1.3231870    -2.8546703     1.3893193
H          -1.5132116    -3.6917991     2.0554317
28
191_C13H10N4O_2-3-9-11 (180,) energy =    -795.6431786
N           1.5512557    -1.2011543    -0.2952300
H           1.5857620    -0.4451839    -0.9686957
C           2.7663561    -1.7585236     0.1262015
N           3.8214158    -1.2555360    -0.6385085
H           3.5801569    -0.6834496    -1.4359033
O           2.8672950    -2.5722878     1.0199065
C           7.9097143    -1.6716631    -0.1199851
H           8.9726129    -1.8041922     0.0537239
C           7.4309189    -0.9314588    -1.2043641
C           5.2048030    -1.4161807    -0.4481867
H           8.1165238    -0.4647326    -1.9062680
C           6.0612430    -0.7948666    -1.3787903
H           5.6594183    -0.2251325    -2.2132142
C          -2.3956608    -2.0218087     0.9643932
H          -3.4141830    -2.2248769     1.2792648
C          -2.1404473    -1.0539514     0.0026608
N           5.6461929    -2.1183425     0.5926519
H          -2.9484663    -0.4875337    -0.4491600
C          -0.8220874    -0.7926105    -0.4035123
C          -0.5554706     0.1995599    -1.3969748
N          -0.2544379     0.9896784    -2.1993939
C           6.9715932    -2.2362185     0.7397719
C           0.2682493    -1.5095765     0.1614980
C          -0.0071832    -2.4844593     1.1338731
H           7.2932297    -2.8186808     1.6015472
H           0.8142035    -3.0301632     1.5747610
C          -1.3229876    -2.7272177     1.5190524
H          -1.5104389    -3.4863575     2.2734876
