26
006_C12H12N2_5-6-21-19 (-165,) energy =    -573.9949881
N           0.6616752     0.9497892    -0.0570584
C          -0.5564905     1.3572165    -0.4296357
H          -0.6780888     2.4350965    -0.5286810
C          -1.6275095     0.5025075    -0.6686556
H          -2.5997984     0.8924718    -0.9514962
C           0.8898997    -0.3647180     0.0767073
N           2.1570256    -0.7999439     0.5043869
C           2.1976783    -2.0376052     1.2791022
H           2.9254288    -1.9376552     2.0892728
H           2.4674462    -2.9188286     0.6786348
H           1.2217996    -2.2094400     1.7336561
C          -1.3896539    -0.8684070    -0.5462583
H          -2.1770553    -1.5890757    -0.7516307
C           5.9334917     0.8848593    -0.5262263
H           6.9013026     1.3053347    -0.7839960
C           5.8345679    -0.3769737     0.0536683
H           6.7295197    -0.9633462     0.2466816
C          -0.1262810    -1.3141763    -0.1844559
H           0.0799350    -2.3771573    -0.1382656
C           4.5929126    -0.9179744     0.3864689
H           4.5711771    -1.9175492     0.8011594
C           3.3982582    -0.2029107     0.1544726
C           3.5096946     1.0754049    -0.4313432
H           2.6188441     1.6608931    -0.5957145
C           4.7572052     1.5957993    -0.7661487
H           4.8022288     2.5857266    -1.2137945
26
006_C12H12N2_5-6-21-19 (-150,) energy =    -573.9975603
N           0.8937307     0.4654369    -1.1292604
C          -0.2862428     0.9276032    -1.5445927
H          -0.2406424     1.7010633    -2.3108392
C          -1.5170792     0.4786678    -1.0686788
H          -2.4469706     0.8884533    -1.4490204
C           0.9155485    -0.4886642    -0.1817823
N           2.1649052    -0.9864584     0.1899603
C           2.1952278    -2.1012026     1.1343054
H           3.2269411    -2.3965290     1.3123267
H           1.6501357    -2.9647185     0.7368104
H           1.7534453    -1.8272509     2.1042161
C          -1.4943169    -0.5124416    -0.0870736
H          -2.4205128    -0.9006650     0.3292593
C           5.8235302     1.1296771    -0.2267645
H           6.7661773     1.6621380    -0.3165618
C           5.7830443    -0.2598498    -0.3333861
H           6.6952681    -0.8230155    -0.5125554
C          -0.2790871    -1.0075766     0.3707786
H          -0.2662067    -1.7698517     1.1389340
C           4.5710880    -0.9410207    -0.2242674
H           4.5530845    -2.0201517    -0.3459820
C           3.3723759    -0.2457701    -0.0025144
C           3.4213493     1.1524149     0.1160178
H           2.5106326     1.7087516     0.2952472
C           4.6340700     1.8269475    -0.0053161
H           4.6475889     2.9098926     0.0879182
26
006_C12H12N2_5-6-21-19 (-135,) energy =    -573.9987755
N           0.9370437     0.5643280    -0.9928378
C          -0.2324466     0.9805569    -1.4819208
H          -0.1730604     1.7991967    -2.1987548
C          -1.4673790     0.4361909    -1.1359324
H          -2.3870735     0.8152259    -1.5691782
C           0.9399744    -0.4426929    -0.1021217
N           2.1749840    -0.8721505     0.3720382
C           2.2222446    -2.0195527     1.2714923
H           3.2562825    -2.1962162     1.5642992
H           1.8317257    -2.9288525     0.7958999
H           1.6413929    -1.8336040     2.1857374
C          -1.4626761    -0.6117265    -0.2135726
H          -2.3939430    -1.0789089     0.0970419
C           5.8584365     1.0903437    -0.3683050
H           6.8092541     1.5863218    -0.5425087
C           5.7456897    -0.2911657    -0.5191246
H           6.6076700    -0.8819120    -0.8180769
C          -0.2613157    -1.0652824     0.3156493
H          -0.2608876    -1.8787755     1.0298092
C           4.5215807    -0.9250795    -0.3028927
H           4.4353474    -1.9979442    -0.4508812
C           3.3936875    -0.1869667     0.0819963
C           3.5132964     1.2017447     0.2392060
H           2.6483715     1.7816514     0.5365798
C           4.7343537     1.8303380     0.0071670
H           4.8094311     2.9073913     0.1328726
26
006_C12H12N2_5-6-21-19 (-120,) energy =    -573.9987975
N           0.9446281     0.6021978    -0.8934767
C          -0.2091942     0.9682460    -1.4552770
H          -0.1433659     1.8026358    -2.1531902
C          -1.4353703     0.3571339    -1.2025862
H          -2.3417702     0.6988223    -1.6913842
C           0.9371046    -0.4215527    -0.0223885
N           2.1536249    -0.7781599     0.5480005
C           2.2230182    -1.9555767     1.4040923
H           3.2437990    -2.0590891     1.7722233
H           1.9448377    -2.8785384     0.8750053
H           1.5608038    -1.8478085     2.2730449
C          -1.4398535    -0.7087435    -0.3004953
H          -2.3646501    -1.2292439    -0.0639919
C           5.8282536     1.0701250    -0.4611585
H           6.7769685     1.5399148    -0.7058139
C           5.6439929    -0.2953881    -0.6759787
H           6.4462165    -0.8967236    -1.0957126
C          -0.2553019    -1.1133155     0.3009574
H          -0.2587246    -1.9431836     0.9963791
C           4.4218534    -0.8958502    -0.3684820
H           4.2730168    -1.9552344    -0.5589311
C           3.3779909    -0.1388974     0.1773923
C           3.5666096     1.2323318     0.3929790
H           2.7560505     1.8198351     0.8086570
C           4.7823203     1.8302339     0.0690275
H           4.9163482     2.8950484     0.2408366
26
006_C12H12N2_5-6-21-19 (-105,) energy =    -573.9981263
N           1.1380293     0.2885934     1.2355791
C           0.0655130     0.5683628     1.9792402
H           0.2460003     1.2260627     2.8292837
C          -1.2152196     0.0814202     1.7268902
H          -2.0498234     0.3457753     2.3678700
C           0.9834466    -0.5175955     0.1705356
N           2.1222905    -0.7993058    -0.5711743
C           2.0119170    -1.5534020    -1.8127868
H           3.0085556    -1.6619751    -2.2420784
H           1.3644350    -1.0592894    -2.5525855
H           1.6117514    -2.5588798    -1.6281160
C          -1.3720267    -0.7524364     0.6174307
H          -2.3478119    -1.1612307     0.3665701
C           5.8245271     1.1146110     0.1760625
H           6.7816383     1.5951176     0.3601738
C           5.0520454     1.4894079    -0.9236511
H           5.4017050     2.2672612    -1.5974153
C          -0.2759646    -1.0629980    -0.1766341
H          -0.3954517    -1.7066766    -1.0394724
C           3.8194841     0.8763102    -1.1557082
H           3.2064336     1.1785607    -2.0005352
C           3.3615908    -0.1302902    -0.2991519
C           4.1366154    -0.5028584     0.8040003
H           3.7686397    -1.2768989     1.4695343
C           5.3602068     0.1209211     1.0415341
H           5.9556743    -0.1738256     1.9015985
26
006_C12H12N2_5-6-21-19 (-90,) energy =    -573.9976860
N           1.1313662     0.5573964     0.9870684
C           0.0535443     0.8527996     1.7170521
H           0.1946616     1.6367538     2.4608756
C          -1.1857066     0.2313528     1.5777583
H          -2.0264500     0.5155635     2.2020227
C           1.0225456    -0.4026878     0.0509926
N           2.1572455    -0.6661922    -0.6991086
C           2.1619853    -1.7454585    -1.6766082
H           3.1302428    -1.7529249    -2.1789643
H           1.3859043    -1.5925323    -2.4377154
H           2.0009781    -2.7330399    -1.2178569
C          -1.2913935    -0.7692444     0.6087265
H          -2.2312313    -1.2946421     0.4572892
C           5.9195413     1.0570097     0.1968496
H           6.8921128     1.4916501     0.4117008
C           5.0181254     1.7309727    -0.6298803
H           5.2869861     2.6921487    -1.0599893
C          -0.1887227    -1.1023053    -0.1666669
H          -0.2641028    -1.8828089    -0.9141012
C           3.7710615     1.1722053    -0.9097030
H           3.0613363     1.6868908    -1.5501776
C           3.4153301    -0.0616671    -0.3576583
C           4.3170085    -0.7334130     0.4736658
H           4.0308039    -1.6877604     0.9070731
C           5.5667989    -0.1761245     0.7478006
H           6.2625849    -0.7039262     1.3947409
26
006_C12H12N2_5-6-21-19 (-75,) energy =    -573.9982526
N           1.1135942     0.6139691     0.9483997
C           0.0204027     0.9536024     1.6346703
H           0.1516173     1.7668371     2.3481991
C          -1.2221787     0.3407077     1.4878696
H          -2.0756652     0.6600448     2.0768335
C           1.0200038    -0.3833267     0.0513232
N           2.1733383    -0.7009767    -0.6532204
C           2.1857884    -1.8612700    -1.5344756
H           3.1779307    -1.9494330    -1.9781959
H           1.4598495    -1.7436873    -2.3497672
H           1.9546785    -2.7970708    -1.0043591
C          -1.3142148    -0.6966632     0.5572786
H          -2.2566074    -1.2154238     0.3992802
C           5.9321772     1.0724904     0.1580985
H           6.9035291     1.5208815     0.3484248
C           4.9217987     1.8177669    -0.4552649
H           5.1063027     2.8485457    -0.7462302
C          -0.1951862    -1.0736675    -0.1736094
H          -0.2636915    -1.8789603    -0.8945792
C           3.6783089     1.2423238    -0.7092665
H           2.8908208     1.8126195    -1.1907640
C           3.4266275    -0.0821335    -0.3340684
C           4.4371064    -0.8251509     0.2852261
H           4.2387154    -1.8507957     0.5845984
C           5.6869807    -0.2508167     0.5247410
H           6.4649884    -0.8377827     1.0058196
26
006_C12H12N2_5-6-21-19 (-60,) energy =    -573.9988656
N           1.0906479     0.6440472     0.9272962
C          -0.0242712     1.0245326     1.5542577
H           0.0895076     1.8660630     2.2372490
C          -1.2675172     0.4195680     1.3837570
H          -2.1403317     0.7731643     1.9226327
C           1.0238364    -0.3890815     0.0699482
N           2.2018131    -0.7627117    -0.5669902
C           2.2054294    -1.9424662    -1.4227300
H           3.1977481    -2.0537495    -1.8595912
H           1.4859632    -1.8320635    -2.2445732
H           1.9581072    -2.8620671    -0.8731375
C          -1.3336474    -0.6563692     0.4961981
H          -2.2743879    -1.1731323     0.3228392
C           5.9503842     1.0861086     0.1193627
H           6.9175366     1.5549555     0.2786425
C           4.8585259     1.8496369    -0.3021994
H           4.9751730     2.9161399    -0.4763232
C          -0.1906093    -1.0762016    -0.1714527
H          -0.2420854    -1.9146044    -0.8545016
C           3.6180643     1.2536988    -0.5170238
H           2.7733592     1.8451221    -0.8502536
C           3.4492547    -0.1196807    -0.2951398
C           4.5426604    -0.8810917     0.1362593
H           4.4144033    -1.9430814     0.3269406
C           5.7878469    -0.2819797     0.3343345
H           6.6265793    -0.8872435     0.6683103
26
006_C12H12N2_5-6-21-19 (-45,) energy =    -573.9986646
N           1.1020461     0.5929633     1.0415596
C          -0.0277778     1.0256720     1.6038520
H           0.0887494     1.8425768     2.3156382
C          -1.2899296     0.4993549     1.3369094
H          -2.1744508     0.8911720     1.8281367
C           1.0340563    -0.4126709     0.1518819
N           2.2312267    -0.8648452    -0.3943070
C           2.1997224    -2.0130033    -1.2942032
H           3.2116209    -2.2194397    -1.6397053
H           1.5772010    -1.8135136    -2.1780881
H           1.8101250    -2.9092635    -0.7947373
C          -1.3592001    -0.5464833     0.4149255
H          -2.3149766    -0.9990544     0.1626022
C           5.9561578     1.1164302     0.0277434
H           6.9155711     1.6170012     0.1242615
C           4.8010796     1.8509493    -0.2510783
H           4.8597303     2.9289173    -0.3777438
C          -0.2004541    -1.0161478    -0.1900410
H          -0.2578210    -1.8264009    -0.9055136
C           3.5674755     1.2172867    -0.3820190
H           2.6787090     1.7952951    -0.6021570
C           3.4690377    -0.1731447    -0.2263514
C           4.6276330    -0.9048883     0.0710619
H           4.5580424    -1.9775006     0.2291445
C           5.8623749    -0.2658146     0.1862125
H           6.7481853    -0.8525824     0.4151765
26
006_C12H12N2_5-6-21-19 (-30,) energy =    -573.9973044
N           1.0725706     0.5098828     1.1525592
C          -0.0713001     0.9806779     1.6506099
H           0.0338815     1.7587791     2.4062406
C          -1.3359566     0.5347053     1.2697349
H          -2.2332151     0.9516347     1.7151363
C           1.0206821    -0.4500371     0.2122974
N           2.2374434    -0.9624693    -0.2427610
C           2.1859311    -2.0937125    -1.1673298
H           3.1985033    -2.4123869    -1.4055348
H           1.6869982    -1.8305767    -2.1123505
H           1.6533662    -2.9387425    -0.7173862
C          -1.3901605    -0.4616812     0.2949926
H          -2.3461192    -0.8471783    -0.0506054
C           5.9138669     1.1614856    -0.0816306
H           6.8588348     1.6961647    -0.0456085
C           4.7113625     1.8570514    -0.2185624
H           4.7156577     2.9414485    -0.2940585
C          -0.2138741    -0.9651432    -0.2479875
H          -0.2614937    -1.7299918    -1.0121225
C           3.4938051     1.1810520    -0.2672869
H           2.5730699     1.7390149    -0.3741995
C           3.4574944    -0.2192369    -0.1838625
C           4.6676972    -0.9116831    -0.0176686
H           4.6578917    -1.9904821     0.1072629
C           5.8826492    -0.2291955     0.0192139
H           6.8047686    -0.7906708     0.1452440
26
006_C12H12N2_5-6-21-19 (-15,) energy =    -573.9950465
N           0.7555557     0.9672158     0.1209527
C          -0.4302136     1.3776728     0.5837587
H          -0.5365691     2.4550864     0.7033019
C          -1.4873530     0.5270182     0.8887799
H          -2.4343592     0.9194660     1.2445332
C           0.9650102    -0.3468779    -0.0439312
N           2.1957141    -0.7858047    -0.5624475
C           2.1762156    -2.0263615    -1.3338732
H           2.8609955    -1.9387167    -2.1816514
H           1.1747351    -2.1853202    -1.7348296
H           2.4647686    -2.9102285    -0.7460531
C          -1.2680744    -0.8438245     0.7339570
H          -2.0438006    -1.5621292     0.9865896
C           6.0441058     0.8858021     0.1843076
H           7.0303812     1.3007454     0.3714288
C           4.8922986     1.6172619     0.4750669
H           4.9750379     2.6177287     0.8929079
C          -0.0371106    -1.2933134     0.2779005
H           0.1571860    -2.3569820     0.2056048
C           3.6209516     1.1031977     0.2314983
H           2.7475021     1.7016947     0.4369108
C           3.4612950    -0.1862274    -0.3171818
C           4.6319227    -0.9257673    -0.5916600
H           4.5737822    -1.9381743    -0.9705071
C           5.8971435    -0.3913252    -0.3505859
H           6.7722109    -0.9954459    -0.5771117
26
006_C12H12N2_5-6-21-19 (0,) energy =    -573.9948664
N           0.7479501     0.9656684    -0.1062331
C          -0.4348614     1.4264722     0.3141833
H          -0.5580597     2.5078211     0.2698485
C          -1.4724593     0.6167366     0.7685504
H          -2.4186239     1.0471974     1.0801686
C           0.9696250    -0.3562935    -0.0689587
N           2.1991899    -0.8416201    -0.5541712
C           2.1820517    -2.1105145    -1.2746459
H           2.7105675    -2.0097981    -2.2291861
H           1.1517268    -2.3811381    -1.5019629
H           2.6490453    -2.9277859    -0.7069886
C          -1.2367776    -0.7585371     0.8214423
H          -1.9973480    -1.4383261     1.1967699
C           6.0164223     0.8744292     0.2157947
H           6.9945210     1.3033812     0.4133267
C           4.8579959     1.4715941     0.7171019
H           4.9281184     2.3770020     1.3150542
C          -0.0055310    -1.2558187     0.4146256
H           0.2102244    -2.3154676     0.4959914
C           3.5986664     0.9366168     0.4662344
H           2.7227034     1.4397141     0.8468223
C           3.4544190    -0.2353524    -0.3060868
C           4.6301978    -0.8378854    -0.7996097
H           4.5870479    -1.7511129    -1.3787353
C           5.8853953    -0.2846795    -0.5431023
H           6.7663305    -0.7802392    -0.9436260
26
006_C12H12N2_5-6-21-19 (15,) energy =    -573.9952713
N           0.8006055     0.9318971    -0.1841011
C          -0.3786906     1.4474907     0.1769565
H          -0.4730225     2.5266771     0.0625586
C          -1.4479701     0.6933404     0.6552033
H          -2.3894407     1.1656988     0.9163312
C           0.9845861    -0.3905638    -0.0582140
N           2.2191728    -0.9245300    -0.4741139
C           2.2190069    -2.1952984    -1.1903107
H           2.6003881    -2.0693046    -2.2120188
H           1.1989874    -2.5673863    -1.2708634
H           2.8350598    -2.9493319    -0.6836970
C          -1.2504040    -0.6814189     0.7990152
H          -2.0376572    -1.3166857     1.1966709
C           5.9882646     0.9097440     0.2103480
H           6.9555038     1.3696388     0.3909310
C           4.8457112     1.3675932     0.8718202
H           4.9191085     2.1895847     1.5796380
C          -0.0229938    -1.2339956     0.4558916
H           0.1642491    -2.2913451     0.6090467
C           3.6018569     0.7884958     0.6479144
H           2.7370113     1.1722943     1.1703816
C           3.4588856    -0.2805479    -0.2606949
C           4.6159314    -0.7411298    -0.9182036
H           4.5634225    -1.5634961    -1.6207107
C           5.8582627    -0.1496491    -0.6827747
H           6.7287658    -0.5311861    -1.2106525
26
006_C12H12N2_5-6-21-19 (30,) energy =    -573.9973048
N           0.9074850     0.9549851     0.0207638
C          -0.2586803     1.5138654     0.3456819
H          -0.2559473     2.6022889     0.3987750
C          -1.4282466     0.7989444     0.5997262
H          -2.3512753     1.3094082     0.8541729
C           0.9807912    -0.3854403    -0.0602626
N           2.2015920    -0.9329720    -0.4610291
C           2.2475783    -2.3775461    -0.6804536
H           3.2406500    -2.6598132    -1.0237767
H           1.5189664    -2.6779593    -1.4414006
H           2.0405504    -2.9409048     0.2420410
C          -1.3529362    -0.5912334     0.5142894
H          -2.2282539    -1.2062502     0.7078312
C           5.9464201     1.0168543     0.0140469
H           6.9089277     1.5067057     0.1314619
C           4.9128603     1.2597006     0.9204909
H           5.0687682     1.9398106     1.7540020
C          -0.1480163    -1.2016112     0.1858723
H          -0.0922007    -2.2809906     0.1314304
C           3.6750713     0.6355616     0.7798026
H           2.8873129     0.8369844     1.4935722
C           3.4476423    -0.2562867    -0.2795817
C           4.4814920    -0.4747988    -1.2042750
H           4.3087400    -1.1159703    -2.0636562
C           5.7208734     0.1446825    -1.0505245
H           6.5047246    -0.0451959    -1.7791982
26
006_C12H12N2_5-6-21-19 (45,) energy =    -573.9986645
N           0.9686107     0.8650163     0.1493759
C          -0.2111307     1.4369021     0.3965160
H          -0.1903235     2.5210314     0.5050539
C          -1.4128477     0.7411573     0.5110053
H          -2.3436641     1.2617549     0.7104221
C           1.0186864    -0.4706805     0.0048589
N           2.2566672    -1.0363179    -0.2840128
C           2.3280253    -2.4718938    -0.5352214
H           3.3644204    -2.7464953    -0.7260082
H           1.7228470    -2.7623226    -1.4035245
H           1.9821763    -3.0493616     0.3339766
C          -1.3601764    -0.6453817     0.3582390
H          -2.2635009    -1.2450996     0.4377987
C           5.9466228     1.0419892    -0.0778686
H           6.8989969     1.5619949    -0.0237753
C           4.9947117     1.2057209     0.9313523
H           5.2065031     1.8520594     1.7792328
C          -0.1458998    -1.2700465     0.1040481
H          -0.1084032    -2.3455452    -0.0125916
C           3.7729727     0.5390672     0.8737018
H           3.0434292     0.6696585     1.6631085
C           3.4795208    -0.3029432    -0.2089710
C           4.4303916    -0.4508205    -1.2288813
H           4.2003400    -1.0720666    -2.0899591
C           5.6579732     0.2081369    -1.1576323
H           6.3814722     0.0777172    -1.9582118
26
006_C12H12N2_5-6-21-19 (60,) energy =    -573.9988658
N           0.9890692     0.8217498     0.2538513
C          -0.1978079     1.4090874     0.4185809
H          -0.1676912     2.4895011     0.5579217
C          -1.4160989     0.7333846     0.4169931
H          -2.3511246     1.2662021     0.5550189
C           1.0265440    -0.5101517     0.0758666
N           2.2769884    -1.0931065    -0.0942780
C           2.3648594    -2.5150552    -0.4020773
H           3.4164528    -2.7935588    -0.4687839
H           1.8724720    -2.7707302    -1.3512160
H           1.9065965    -3.1174343     0.3932832
C          -1.3750817    -0.6494689     0.2276837
H          -2.2921976    -1.2332349     0.2129671
C           5.9097527     1.0840561    -0.1501916
H           6.8506673     1.6273738    -0.1590046
C           5.0572944     1.1693218     0.9539798
H           5.3362510     1.7774763     1.8105284
C          -0.1551852    -1.2899587     0.0537876
H          -0.1251273    -2.3615222    -0.0981255
C           3.8538982     0.4684422     0.9757671
H           3.1960010     0.5296626     1.8348017
C           3.4780527    -0.3183687    -0.1213334
C           4.3292931    -0.3948419    -1.2306299
H           4.0355031    -0.9889295    -2.0916686
C           5.5420170     0.2966315    -1.2405375
H           6.1918998     0.2258215    -2.1088584
26
006_C12H12N2_5-6-21-19 (75,) energy =    -573.9982551
N           0.8224991     0.7638391     0.2484125
C          -0.3758806     1.3454063     0.3328083
H          -0.3613757     2.4287511     0.4504619
C          -1.5879343     0.6606040     0.2768407
H          -2.5325612     1.1894606     0.3495218
C           0.8753202    -0.5717078     0.1014429
N           2.1383713    -1.1440513     0.0314255
C           2.2739480    -2.5643574    -0.2637942
H           3.3346853    -2.8170563    -0.2734192
H           1.8396073    -2.8385507    -1.2367648
H           1.7882812    -3.1735745     0.5095395
C          -1.5287453    -0.7259189     0.1199687
H          -2.4406937    -1.3154969     0.0658146
C           5.6968051     1.1448309    -0.1275355
H           6.6205088     1.7160887    -0.1625900
C           4.9614608     1.0706310     1.0583866
H           5.3134667     1.5826851     1.9500654
C          -0.2973012    -1.3613989     0.0292356
H          -0.2492500    -2.4360493    -0.0963434
C           3.7813763     0.3312685     1.1096738
H           3.2074186     0.2634716     2.0279049
C           3.3151425    -0.3275246    -0.0333795
C           4.0489258    -0.2474335    -1.2216459
H           3.6818386    -0.7517070    -2.1115209
C           5.2387972     0.4816846    -1.2660776
H           5.8015807     0.5364888    -2.1942827
26
006_C12H12N2_5-6-21-19 (90,) energy =    -573.9977189
N           0.8393712     0.7757155     0.0573339
C          -0.3549039     1.3705577     0.0980917
H          -0.3315812     2.4601270     0.1098787
C          -1.5717026     0.6925902     0.1253760
H          -2.5112608     1.2342772     0.1581866
C           0.8794763    -0.5692950     0.0412849
N           2.1334574    -1.1511501    -0.0011230
C           2.2799146    -2.5991665    -0.0259454
H           3.3435477    -2.8392142    -0.0543012
H           1.8030440    -3.0452645    -0.9105914
H           1.8460648    -3.0689100     0.8683434
C          -1.5239557    -0.7036906     0.1079733
H          -2.4406484    -1.2881751     0.1271860
C           5.7086313     1.1141946    -0.0922515
H           6.6355706     1.6809658    -0.1169162
C           5.1285304     0.7698320     1.1303383
H           5.6030862     1.0687205     2.0612452
C          -0.2985423    -1.3547787     0.0656408
H          -0.2557310    -2.4372570     0.0514754
C           3.9388476     0.0417134     1.1612532
H           3.4768282    -0.2267610     2.1068249
C           3.3212392    -0.3444503    -0.0322156
C           3.9012791     0.0035265    -1.2557615
H           3.4107336    -0.2933225    -2.1783498
C           5.0920633     0.7304661    -1.2845637
H           5.5369473     0.9986097    -2.2391751
26
006_C12H12N2_5-6-21-19 (105,) energy =    -573.9981266
N           0.8098617     0.7467622    -0.1689782
C          -0.3868054     1.3379683    -0.1705098
H          -0.3705079     2.4222620    -0.2788562
C          -1.5983853     0.6619679    -0.0431194
H          -2.5414179     1.1985863    -0.0500794
C           0.8607306    -0.5904592    -0.0381317
N           2.1207756    -1.1730742    -0.0564379
C           2.2652023    -2.5970571     0.2160046
H           3.3231197    -2.8554992     0.1576448
H           1.7289333    -3.1963988    -0.5311728
H           1.8907552    -2.8785891     1.2116272
C          -1.5407100    -0.7265058     0.0965106
H          -2.4521189    -1.3096666     0.2035372
C           5.6677397     1.1394438    -0.0513786
H           6.5856562     1.7210383    -0.0546690
C           5.2518351     0.4931192     1.1130034
H           5.8410675     0.5733646     2.0227546
C          -0.3112092    -1.3720781     0.1019685
H          -0.2637383    -2.4483112     0.2137669
C           4.0690172    -0.2484497     1.1185112
H           3.7322503    -0.7379968     2.0283728
C           3.3052914    -0.3641732    -0.0476393
C           3.7231364     0.2865256    -1.2131627
H           3.1186027     0.1999342    -2.1100759
C           4.8968926     1.0381540    -1.2122676
H           5.2136624     1.5413895    -2.1219926
26
006_C12H12N2_5-6-21-19 (120,) energy =    -573.9987975
N           0.9158822     0.8206220    -0.2317805
C          -0.2797841     1.4091846    -0.3016419
H          -0.2596191     2.4882636    -0.4526510
C          -1.4947843     0.7364323    -0.1920901
H          -2.4372758     1.2701640    -0.2559333
C           0.9655837    -0.5097093    -0.0455873
N           2.2250092    -1.0943948     0.0207198
C           2.3382097    -2.5114668     0.3418554
H           3.3920942    -2.7894442     0.3251859
H           1.8160746    -3.1251417    -0.4038019
H           1.9264192    -2.7534952     1.3323198
C          -1.4404122    -0.6448462     0.0053869
H          -2.3541371    -1.2261137     0.1020123
C           5.8313416     1.1194558    -0.1551612
H           6.7641761     1.6743411    -0.2056516
C           5.5281947     0.3545964     0.9708264
H           6.2205381     0.3143507     1.8077108
C          -0.2112642    -1.2866298     0.0822217
H          -0.1698467    -2.3569329     0.2404740
C           4.3256860    -0.3513092     1.0372495
H           4.0812114    -0.9274989     1.9254866
C           3.4232055    -0.3156107    -0.0327369
C           3.7310861     0.4527163    -1.1628652
H           3.0291867     0.4863124    -1.9881958
C           4.9247375     1.1686891    -1.2174398
H           5.1521437     1.7613040    -2.0997089
26
006_C12H12N2_5-6-21-19 (135,) energy =    -573.9987757
N           0.8625739     0.8874105    -0.1445520
C          -0.3325502     1.4601853    -0.2986438
H          -0.3175096     2.5417117    -0.4314429
C          -1.5419579     0.7685679    -0.2924373
H          -2.4848969     1.2897834    -0.4204789
C           0.9204467    -0.4452131     0.0236806
N           2.1775596    -1.0118505     0.2061764
C           2.2703791    -2.4422436     0.4769618
H           3.3207125    -2.7188614     0.5575347
H           1.8296314    -3.0315666    -0.3392035
H           1.7624018    -2.7162264     1.4110371
C          -1.4809228    -0.6146669    -0.1139396
H          -2.3897887    -1.2111155    -0.0991261
C           5.8483180     1.0596662    -0.2420686
H           6.7974403     1.5748448    -0.3610584
C           5.6228853     0.2432987     0.8655138
H           6.3936774     0.1207099     1.6219571
C          -0.2512533    -1.2401475     0.0463857
H          -0.2073651    -2.3126403     0.1862813
C           4.4000933    -0.4107996     1.0203610
H           4.2219342    -1.0218499     1.9008389
C           3.3882063    -0.2689901     0.0605933
C           3.6216735     0.5478230    -1.0556413
H           2.8473459     0.6645510    -1.8036702
C           4.8390032     1.2097780    -1.1964326
H           5.0032685     1.8394096    -2.0670973
26
006_C12H12N2_5-6-21-19 (150,) energy =    -573.9975608
N           0.8105947     0.9420282     0.0140994
C          -0.3800935     1.4906317    -0.2297625
H          -0.3889800     2.5786438    -0.2900918
C          -1.5595547     0.7661024    -0.3945975
H          -2.5021383     1.2684298    -0.5855790
C           0.8987693    -0.3973813     0.0987045
N           2.1498600    -0.9328958     0.4071585
C           2.2328133    -2.3773460     0.6121257
H           3.2557363    -2.6486279     0.8641211
H           1.9522957    -2.9355273    -0.2937973
H           1.5772820    -2.6939630     1.4311780
C          -1.4684135    -0.6230313    -0.3046221
H          -2.3512044    -1.2451205    -0.4294901
C           5.8539373     1.0050094    -0.3404050
H           6.8099044     1.4827909    -0.5354316
C           5.6993453     0.1505960     0.7504477
H           6.5342534    -0.0411084     1.4194474
C          -0.2390321    -1.2231779    -0.0591312
H          -0.1719424    -2.3016412     0.0011551
C           4.4695055    -0.4565748     1.0025942
H           4.3567200    -1.0908722     1.8770371
C           3.3675038    -0.2243258     0.1653214
C           3.5326170     0.6274329    -0.9385303
H           2.6988567     0.8148775    -1.6025073
C           4.7609910     1.2393169    -1.1774046
H           4.8652010     1.8966427    -2.0368736
26
006_C12H12N2_5-6-21-19 (165,) energy =    -573.9954044
N           0.7445508     0.9132465     0.2264392
C          -0.4573714     1.4341646    -0.0396473
H          -0.5377140     2.5135434     0.0834045
C          -1.5641703     0.6851638    -0.4330844
H          -2.5214403     1.1615363    -0.6184836
C           0.9125623    -0.4097240     0.0844154
N           2.1759194    -0.9466894     0.3962031
C           2.2365637    -2.2115584     1.1198908
H           2.6466808    -2.0707926     2.1290303
H           2.8591550    -2.9466886     0.5948879
H           1.2321822    -2.6158769     1.2335994
C          -1.3840217    -0.6902101    -0.5939633
H          -2.2027614    -1.3216693    -0.9292126
C           5.8706710     0.9254343    -0.5344745
H           6.8196860     1.3925413    -0.7812339
C           5.8060966    -0.1056470     0.3979302
H           6.7098955    -0.4567184     0.8896944
C          -0.1357719    -1.2484226    -0.3497676
H           0.0342758    -2.3061504    -0.5195410
C           4.5877717    -0.7075836     0.7183887
H           4.5835162    -1.5058774     1.4503415
C           3.3905546    -0.2822074     0.1127075
C           3.4679322     0.7526392    -0.8421353
H           2.5700030     1.1001137    -1.3342536
C           4.6876791     1.3436138    -1.1502573
H           4.7114347     2.1401707    -1.8898185
26
006_C12H12N2_5-6-21-19 (180,) energy =    -573.9949110
N           0.6790654     0.9434729     0.1687232
C          -0.5314684     1.4063593    -0.1601282
H          -0.6525705     2.4869685    -0.0959719
C          -1.5985256     0.5992060    -0.5464880
H          -2.5652870     1.0309297    -0.7844561
C           0.8983158    -0.3778052     0.1017885
N           2.1615396    -0.8628606     0.4910221
C           2.2048767    -2.1300827     1.2130421
H           2.7727249    -2.0181007     2.1438674
H           2.6648207    -2.9357634     0.6239832
H           1.1922583    -2.4241604     1.4856435
C          -1.3659355    -0.7749995    -0.6303289
H          -2.1510698    -1.4522456    -0.9564440
C           5.8982028     0.8824972    -0.5517342
H           6.8557628     1.3185421    -0.8212290
C           5.8310120    -0.2516215     0.2519562
H           6.7420456    -0.7200021     0.6162027
C          -0.1077807    -1.2742925    -0.3190929
H           0.1029170    -2.3326623    -0.4268004
C           4.6021211    -0.8137343     0.6004654
H           4.6065913    -1.7055099     1.2137473
C           3.3902034    -0.2439684     0.1590152
C           3.4696593     0.8998502    -0.6631555
H           2.5652184     1.3741984    -1.0134508
C           4.7028853     1.4447304    -1.0049389
H           4.7232975     2.3283608    -1.6381572
