26
006_C12H12N2_0-5-6-21 (-165,) energy =    -574.0023578
N          -0.1800077    -0.5909407    -0.8122557
C          -1.3403636    -0.8426903    -0.1929269
H          -2.1766366    -1.0812295    -0.8494296
C          -1.5133109    -0.8161666     1.1855986
H          -2.4776509    -1.0355285     1.6320204
C           0.8901545    -0.2865006    -0.0584131
N           2.0564449     0.0048577    -0.7546709
C           1.9952405     0.0461340    -2.2178621
H           2.9673277     0.3694182    -2.5930359
H           1.2214071     0.7418211    -2.5532957
H           1.7588309    -0.9399918    -2.6356709
C          -0.3974146    -0.4858701     1.9649652
H          -0.4766756    -0.4312280     3.0479338
C           5.8890524     0.1057069     1.0414705
H           6.8768454     0.1313139     1.4929282
C           5.4420046     1.1765798     0.2654716
H           6.0788163     2.0442463     0.1145818
C           0.8150803    -0.2126222     1.3540179
H           1.6819952     0.0658835     1.9408487
C           4.1701431     1.1495834    -0.3061418
H           3.8128768     1.9931603    -0.8900023
C           3.3332116     0.0389426    -0.1253460
C           3.7922500    -1.0400966     0.6453737
H           3.1541494    -1.9089945     0.7754331
C           5.0563966    -0.9991505     1.2323537
H           5.3978255    -1.8427785     1.8265046
26
006_C12H12N2_0-5-6-21 (-150,) energy =    -574.0020482
N          -0.1315913    -0.6980647    -0.8179292
C          -1.2718039    -1.0294664    -0.1962105
H          -2.0591540    -1.4179205    -0.8413104
C          -1.4769820    -0.9131827     1.1729043
H          -2.4195222    -1.2081259     1.6225355
C           0.8723006    -0.2026409    -0.0774675
N           2.0227090     0.1842958    -0.7634456
C           1.9919701     0.1317940    -2.2281172
H           2.8813549     0.6358879    -2.6108284
H           1.0974364     0.6355511    -2.5983239
H           1.9772002    -0.9006755    -2.6024724
C          -0.4249359    -0.3952563     1.9398361
H          -0.5355175    -0.2664154     3.0136393
C           5.8691701    -0.0054257     1.0029052
H           6.8598547    -0.0516274     1.4463697
C           5.4825585     1.1111467     0.2589707
H           6.1697733     1.9424599     0.1254918
C           0.7589889    -0.0284656     1.3225640
H           1.5783962     0.3958790     1.8912742
C           4.2076219     1.1760315    -0.3017605
H           3.8958552     2.0541030    -0.8603693
C           3.3059025     0.1142436    -0.1415344
C           3.7024010    -1.0098466     0.5982023
H           3.0130177    -1.8401614     0.7177627
C           4.9717669    -1.0614823     1.1735126
H           5.2647643    -1.9388388     1.7442729
26
006_C12H12N2_0-5-6-21 (-135,) energy =    -574.0006262
N          -0.0560094    -0.8321252    -0.7560929
C          -1.1699404    -1.2388136    -0.1293620
H          -1.8844513    -1.7794720    -0.7489028
C          -1.4284969    -1.0222000     1.2185738
H          -2.3432014    -1.3866230     1.6750084
C           0.8498966    -0.1448269    -0.0467917
N           1.9847917     0.3201411    -0.7249759
C           1.9580170     0.2357300    -2.1903121
H           2.7939913     0.8159560    -2.5865665
H           1.0200159     0.6513884    -2.5621604
H           2.0382365    -0.7991061    -2.5495191
C          -0.4708476    -0.3136229     1.9562710
H          -0.6294058    -0.1036190     3.0109833
C           5.8433868    -0.1234658     0.9768430
H           6.8360524    -0.2325332     1.4046396
C           5.5132056     1.0195962     0.2454251
H           6.2471134     1.8090963     0.1064064
C           0.6768280     0.1387302     1.3266971
H           1.4267312     0.7102747     1.8626759
C           4.2362653     1.1650288    -0.2941074
H           3.9693047     2.0648996    -0.8411232
C           3.2738193     0.1588488    -0.1257569
C           3.6125773    -0.9915008     0.6016767
H           2.8770410    -1.7798480     0.7287253
C           4.8860437    -1.1235817     1.1555549
H           5.1336280    -2.0206403     1.7171969
26
006_C12H12N2_0-5-6-21 (-120,) energy =    -573.9981810
N           0.0801940    -0.9555004    -0.7082935
C          -1.0087082    -1.4340783    -0.0872437
H          -1.6216544    -2.1177114    -0.6731637
C          -1.3569396    -1.1200099     1.2213872
H          -2.2438339    -1.5487787     1.6771504
C           0.8539076    -0.0914552    -0.0400916
N           1.9798610     0.4430598    -0.6999814
C           1.9436221     0.3778672    -2.1688675
H           2.7435422     1.0062657    -2.5664781
H           0.9829251     0.7576654    -2.5223739
H           2.0693199    -0.6451470    -2.5467716
C          -0.5303523    -0.2314555     1.9206527
H          -0.7654195     0.0559643     2.9422131
C           5.8362158    -0.2270535     0.9402745
H           6.8271268    -0.3914774     1.3541661
C           5.5636081     0.9251648     0.1986483
H           6.3415891     1.6670668     0.0381371
C           0.5835849     0.2977479     1.2880271
H           1.2366963     1.0071955     1.7852092
C           4.2899921     1.1423976    -0.3223209
H           4.0703880     2.0524221    -0.8735005
C           3.2690555     0.1992003    -0.1268901
C           3.5495316    -0.9601402     0.6108526
H           2.7725494    -1.7033777     0.7588864
C           4.8221077    -1.1629037     1.1464482
H           5.0222883    -2.0666645     1.7162957
26
006_C12H12N2_0-5-6-21 (-105,) energy =    -573.9952212
N           0.2282519    -1.0837245    -0.6282164
C          -0.8374284    -1.6261356    -0.0211525
H          -1.3271843    -2.4356497    -0.5606218
C          -1.3069586    -1.2235153     1.2256634
H          -2.1681095    -1.7085275     1.6747300
C           0.8472612    -0.0678973    -0.0153265
N           1.9671676     0.5294902    -0.6517509
C           1.9006995     0.5302630    -2.1233352
H           2.6791267     1.1894243    -2.5133986
H           0.9276239     0.9172405    -2.4354894
H           2.0304312    -0.4718461    -2.5512801
C          -0.6391724    -0.1770098     1.8702313
H          -0.9738083     0.1797074     2.8408130
C           5.8277709    -0.3332841     0.8928415
H           6.8188788    -0.5433188     1.2849736
C           5.5979087     0.8163948     0.1322616
H           6.4102411     1.5114129    -0.0645291
C           0.4482479     0.4161309     1.2429755
H           0.9852557     1.2453134     1.6914871
C           4.3257729     1.0933360    -0.3610883
H           4.1450863     2.0053517    -0.9227578
C           3.2576134     0.2126984    -0.1206922
C           3.4951508    -0.9435573     0.6372071
H           2.6863520    -1.6430826     0.8199353
C           4.7689498    -1.2049171     1.1452388
H           4.9325545    -2.1061358     1.7307482
26
006_C12H12N2_0-5-6-21 (-90,) energy =    -573.9934644
N           0.7745573    -0.5499630     1.4903320
C          -0.3647437     0.0010358     1.9267303
H          -0.5457659    -0.0670848     2.9983532
C          -1.2832049     0.6409827     1.0943298
H          -2.1870716     1.0788807     1.5067123
C           1.0275955    -0.5014194     0.1775787
N           2.2301374    -1.1169513    -0.2896863
C           2.3577188    -2.5331000     0.0565703
H           2.8896984    -2.6927348     1.0047047
H           2.8832507    -3.0695155    -0.7407823
H           1.3575900    -2.9607891     0.1451066
C          -1.0069289     0.6940524    -0.2720322
H          -1.6964867     1.1742966    -0.9611158
C           5.7691191     1.2084007    -0.5807182
H           6.6740676     1.8026344    -0.6667824
C           4.5205685     1.8223538    -0.4629749
H           4.4456999     2.9070521    -0.4528384
C           0.1651558     0.1062654    -0.7428493
H           0.4219603     0.1040981    -1.7968585
C           3.3567423     1.0677980    -0.3495755
H           2.4040181     1.5754954    -0.2501516
C           3.4064642    -0.3414152    -0.3544876
C           4.6703921    -0.9536478    -0.4646458
H           4.7601463    -2.0332334    -0.4618207
C           5.8280278    -0.1839413    -0.5785105
H           6.7870813    -0.6894399    -0.6619618
26
006_C12H12N2_0-5-6-21 (-75,) energy =    -573.9928032
N           0.9268574    -0.3484421     1.4752877
C          -0.1942166     0.1912159     1.9669450
H          -0.2510882     0.2646715     3.0519298
C          -1.2488412     0.6440006     1.1720129
H          -2.1349845     1.0750435     1.6279757
C           1.0338557    -0.4582715     0.1457934
N           2.2182949    -1.0709318    -0.3791025
C           2.2871688    -2.5134945    -0.1615262
H           2.6959032    -2.7784721     0.8251150
H           2.9011800    -2.9813706    -0.9379272
H           1.2778794    -2.9244354    -0.2398197
C          -1.1289667     0.5240502    -0.2115969
H          -1.9243765     0.8616289    -0.8706036
C           5.7985740     1.1974855    -0.4725353
H           6.7136448     1.7811389    -0.5120136
C           4.5507466     1.8261424    -0.4732633
H           4.4875297     2.9108625    -0.5137100
C           0.0332025    -0.0395707    -0.7371564
H           0.1810601    -0.1579538    -1.8053323
C           3.3753750     1.0844242    -0.4238770
H           2.4196416     1.5977717    -0.4293819
C           3.4125555    -0.3241806    -0.3690458
C           4.6726074    -0.9509772    -0.3580934
H           4.7502889    -2.0300591    -0.2978624
C           5.8436246    -0.1938064    -0.4148224
H           6.8015549    -0.7081949    -0.4049896
26
006_C12H12N2_0-5-6-21 (-60,) energy =    -573.9941231
N           0.9036076     0.4076629     1.3226585
C          -0.3026276     0.9609820     1.4863713
H          -0.3797971     1.6893236     2.2924013
C          -1.4193009     0.6376397     0.7192330
H          -2.3803073     1.1027690     0.9142402
C           1.0690565    -0.4823251     0.3332563
N           2.3371538    -1.0997756     0.2064545
C           2.3326613    -2.4846280    -0.2504854
H           3.2369115    -2.9817040     0.1119241
H           2.2958123    -2.5991713    -1.3458598
H           1.4682246    -2.9950639     0.1793427
C          -1.2497750    -0.2968217    -0.3028981
H          -2.0813958    -0.5744367    -0.9454154
C           5.8929563     1.1308131    -0.4861229
H           6.8047007     1.6952704    -0.6598163
C           4.8905190     1.6333906     0.3463749
H           5.0205986     2.5968986     0.8331798
C           0.0045270    -0.8597930    -0.5090299
H           0.1628438    -1.5614661    -1.3203612
C           3.7240394     0.9129890     0.5874364
H           2.9696857     1.2977005     1.2597229
C           3.5189162    -0.3388354    -0.0249910
C           4.5319406    -0.8405164    -0.8634038
H           4.4136703    -1.7919231    -1.3679666
C           5.7028183    -0.1127965    -1.0830020
H           6.4647773    -0.5281058    -1.7380062
26
006_C12H12N2_0-5-6-21 (-45,) energy =    -573.9958719
N           0.9431665     0.6407769     1.0224900
C          -0.2567684     1.2157162     1.1349998
H          -0.2874431     2.1226071     1.7378593
C          -1.4209444     0.7137450     0.5581763
H          -2.3738772     1.2129507     0.7005398
C           1.0583098    -0.4699691     0.2783145
N           2.3260772    -1.0797202     0.2117840
C           2.3684636    -2.4733448    -0.2159100
H           3.3434723    -2.8890073     0.0475367
H           2.2122594    -2.6211856    -1.2965346
H           1.5986105    -3.0359664     0.3195939
C          -1.3047724    -0.4479427    -0.2056490
H          -2.1747674    -0.8792124    -0.6944135
C           5.9040318     1.1355798    -0.3898461
H           6.8250600     1.6921602    -0.5395148
C           5.0307306     1.4744083     0.6453205
H           5.2729329     2.2972664     1.3132305
C          -0.0608863    -1.0491369    -0.3587476
H           0.0397097    -1.9297748    -0.9812734
C           3.8533136     0.7586129     0.8547618
H           3.1849282     1.0180851     1.6630040
C           3.5151878    -0.3091587     0.0058604
C           4.3960113    -0.6458113    -1.0355099
H           4.1563728    -1.4572332    -1.7145771
C           5.5798074     0.0679364    -1.2252639
H           6.2431976    -0.2113831    -2.0399175
26
006_C12H12N2_0-5-6-21 (-30,) energy =    -573.9975459
N           0.9816754     0.7391840     0.7344885
C          -0.2115145     1.3265531     0.8447502
H          -0.2005366     2.3337515     1.2603692
C          -1.4156690     0.7289315     0.4795933
H          -2.3588504     1.2506686     0.6041580
C           1.0460122    -0.4985673     0.2178323
N           2.3085564    -1.1006591     0.1478130
C           2.3779297    -2.5016630    -0.2498694
H           3.3913269    -2.8641921    -0.0701259
H           2.1283638    -2.6767404    -1.3082847
H           1.6905026    -3.0922212     0.3642111
C          -1.3496573    -0.5589524    -0.0535888
H          -2.2529109    -1.0740032    -0.3711179
C           5.8956766     1.1180428    -0.3226506
H           6.8213984     1.6750087    -0.4385691
C           5.0703344     1.3417669     0.7815727
H           5.3551322     2.0727463     1.5339542
C          -0.1181331    -1.1868027    -0.1956942
H          -0.0661827    -2.1729201    -0.6394712
C           3.8860846     0.6251947     0.9440221
H           3.2517931     0.7952961     1.8031132
C           3.4998097    -0.3222769    -0.0158346
C           4.3289747    -0.5422428    -1.1254600
H           4.0390002    -1.2625814    -1.8844845
C           5.5204416     0.1692166    -1.2729013
H           6.1485255    -0.0155349    -2.1405997
26
006_C12H12N2_0-5-6-21 (-15,) energy =    -573.9985931
N           1.0056119     0.8112406     0.5007587
C          -0.1835563     1.3996614     0.6438707
H          -0.1522585     2.4551515     0.9130273
C          -1.4050881     0.7520862     0.4752144
H          -2.3424002     1.2816719     0.6101504
C           1.0447769    -0.4884464     0.1633145
N           2.3014433    -1.0799948     0.0377225
C           2.3783351    -2.4895461    -0.3258878
H           3.4171497    -2.8125111    -0.2520460
H           2.0186832    -2.6948150    -1.3456807
H           1.7869702    -3.0930004     0.3721375
C          -1.3637901    -0.5979083     0.1221636
H          -2.2829298    -1.1570853    -0.0344007
C           5.9217681     1.1096607    -0.2295285
H           6.8578708     1.6575840    -0.2933827
C           5.0783611     1.2794633     0.8711942
H           5.3594179     1.9588729     1.6717106
C          -0.1405159    -1.2350904    -0.0417936
H          -0.1126773    -2.2763434    -0.3362234
C           3.8802497     0.5746667     0.9650588
H           3.2318574     0.7033987     1.8220613
C           3.5003134    -0.3060495    -0.0577073
C           4.3448805    -0.4691632    -1.1644624
H           4.0535004    -1.1355118    -1.9713690
C           5.5506016     0.2291886    -1.2449265
H           6.1927196     0.0893239    -2.1106842
26
006_C12H12N2_0-5-6-21 (0,) energy =    -573.9989111
N           0.9905895     0.8400796     0.2654918
C          -0.1941074     1.4254446     0.4513490
H          -0.1627350     2.5052106     0.5952052
C          -1.4115294     0.7485191     0.4657057
H          -2.3450124     1.2792222     0.6211737
C           1.0277417    -0.4907776     0.0805945
N           2.2750937    -1.0725257    -0.1179215
C           2.3533195    -2.4978561    -0.4139715
H           3.4023510    -2.7827848    -0.4897388
H           1.8493503    -2.7582425    -1.3554077
H           1.9009128    -3.0913418     0.3914427
C          -1.3715294    -0.6332392     0.2689947
H          -2.2882024    -1.2178274     0.2656010
C           5.9283302     1.0732133    -0.1391216
H           6.8735283     1.6090430    -0.1401210
C           5.0454290     1.2027146     0.9361867
H           5.3047343     1.8379963     1.7791453
C          -0.1538402    -1.2714761     0.0728772
H          -0.1261557    -2.3419842    -0.0858267
C           3.8353690     0.5130498     0.9487063
H           3.1561613     0.6113084     1.7868313
C           3.4835153    -0.3108057    -0.1296516
C           4.3655346    -0.4299484    -1.2118066
H           4.0909274    -1.0484475    -2.0618309
C           5.5837445     0.2512369    -1.2113900
H           6.2560545     0.1457654    -2.0588768
26
006_C12H12N2_0-5-6-21 (15,) energy =    -573.9987396
N           0.9529813     0.8606953     0.0444081
C          -0.2253875     1.4413416     0.2766271
H          -0.2102097     2.5305066     0.3094910
C          -1.4203842     0.7484278     0.4625884
H          -2.3508434     1.2768256     0.6423581
C           1.0066926    -0.4822466    -0.0057046
N           2.2421888    -1.0541478    -0.2858650
C           2.3312861    -2.4974410    -0.4730630
H           3.3552632    -2.7548221    -0.7422981
H           1.6642206    -2.8373532    -1.2747638
H           2.0747841    -3.0469730     0.4452227
C          -1.3618114    -0.6452661     0.4093897
H          -2.2590810    -1.2422148     0.5529437
C           5.9160143     1.0413479    -0.0400734
H           6.8659958     1.5645394     0.0252854
C           4.9918212     1.1260842     1.0044390
H           5.2232307     1.7131465     1.8894293
C          -0.1479493    -1.2798147     0.1774726
H          -0.1001441    -2.3611655     0.1469644
C           3.7750215     0.4519946     0.9307544
H           3.0624982     0.5165405     1.7452959
C           3.4587056    -0.3085182    -0.2032439
C           4.3812048    -0.3804349    -1.2546363
H           4.1300779    -0.9477053    -2.1467377
C           5.6059237     0.2828021    -1.1686426
H           6.3105464     0.2153785    -1.9934296
26
006_C12H12N2_0-5-6-21 (30,) energy =    -573.9980432
N           0.9083053     0.8929078    -0.1655348
C          -0.2581366     1.4718392     0.1212612
H          -0.2731888     2.5585483     0.0414589
C          -1.4105474     0.7776003     0.4897197
H          -2.3356936     1.3040594     0.7003803
C           0.9957782    -0.4467975    -0.0778392
N           2.2155539    -1.0138067    -0.4443255
C           2.3131695    -2.4655393    -0.5507548
H           3.2783065    -2.7231626    -0.9876446
H           1.5238894    -2.8547120    -1.2024742
H           2.2391455    -2.9681810     0.4270220
C          -1.3168769    -0.6115299     0.5784897
H          -2.1774925    -1.2071788     0.8726893
C           5.9036884     1.0139037     0.0523084
H           6.8565546     1.5202173     0.1793763
C           4.9372154     1.0685695     1.0593633
H           5.1378829     1.6148230     1.9773764
C          -0.1092110    -1.2418491     0.3006658
H          -0.0260066    -2.3180155     0.3907940
C           3.7161409     0.4153272     0.9049682
H           2.9703884     0.4566715     1.6917243
C           3.4388153    -0.2910506    -0.2730151
C           4.4043005    -0.3326432    -1.2864947
H           4.1818551    -0.8575776    -2.2115016
C           5.6320757     0.3081778    -1.1202631
H           6.3704311     0.2665684    -1.9167555
26
006_C12H12N2_0-5-6-21 (45,) energy =    -573.9964242
N           0.8374009     0.8744392    -0.3750175
C          -0.3188716     1.4432085    -0.0344259
H          -0.3905412     2.5129795    -0.2289613
C          -1.4000334     0.7541178     0.5182471
H          -2.3242476     1.2692919     0.7593163
C           0.9926466    -0.4422505    -0.1461821
N           2.1982608    -1.0004952    -0.5918219
C           2.2956830    -2.4564838    -0.6638111
H           3.2018219    -2.7238722    -1.2093414
H           1.4354509    -2.8602561    -1.2061941
H           2.3452682    -2.9352092     0.3279934
C          -1.2384619    -0.6115175     0.7465835
H          -2.0406804    -1.1988407     1.1863821
C           5.8907135     0.9493611     0.1456097
H           6.8429274     1.4379564     0.3325115
C           4.8718424     1.0052348     1.0986112
H           5.0297560     1.5341349     2.0349921
C          -0.0328615    -1.2261403     0.4209801
H           0.1105868    -2.2815234     0.6200495
C           3.6504087     0.3746105     0.8669615
H           2.8648776     0.4170722     1.6145246
C           3.4262320    -0.3087434    -0.3355537
C           4.4457700    -0.3509285    -1.2954413
H           4.2644239    -0.8554267    -2.2404714
C           5.6719957     0.2660673    -1.0519045
H           6.4518097     0.2252419    -1.8079392
26
006_C12H12N2_0-5-6-21 (60,) energy =    -573.9941231
N           0.5549769     1.0081490    -0.1043421
C          -0.6021326     1.3545723     0.4695120
H          -0.8273019     2.4201122     0.4655304
C          -1.5012491     0.4457839     1.0223761
H          -2.4379561     0.7840487     1.4537373
C           0.8999449    -0.2875948    -0.1138148
N           2.1012208    -0.6461746    -0.7722493
C           2.0992673    -1.9363727    -1.4516212
H           2.8305975    -1.9118748    -2.2644718
H           1.1120118    -2.1043360    -1.8871323
H           2.3423371    -2.7909414    -0.7996650
C          -1.1474508    -0.9037740     1.0020965
H          -1.8012576    -1.6564012     1.4352104
C           5.8889292     0.8964819     0.3974801
H           6.8585114     1.2896294     0.6897038
C           4.7481570     1.7004569     0.4499314
H           4.8256717     2.7333726     0.7805963
C           0.0661175    -1.2802449     0.4381067
H           0.3734538    -2.3200622     0.4441293
C           3.5027632     1.2121473     0.0648607
H           2.6330308     1.8543213     0.0787093
C           3.3617638    -0.1204771    -0.3693843
C           4.5143984    -0.9267251    -0.4195595
H           4.4535957    -1.9622214    -0.7323494
C           5.7588974    -0.4175998    -0.0445446
H           6.6290569    -1.0676438    -0.0931445
26
006_C12H12N2_0-5-6-21 (75,) energy =    -573.9928013
N           0.4789986     0.5262826    -0.7997831
C          -0.6882764     1.0983848    -0.4835142
H          -1.0193654     1.9004774    -1.1414288
C          -1.4642946     0.7189133     0.6132314
H          -2.4041965     1.2211988     0.8211711
C           0.9188175    -0.4655120    -0.0161982
N           2.1500364    -1.1034964    -0.3770742
C           2.0529810    -1.9628559    -1.5538725
H           2.1784472    -1.4113826    -2.4977368
H           1.0681169    -2.4356993    -1.5576307
H           2.8060846    -2.7560538    -1.5031594
C          -0.9988226    -0.3160813     1.4227696
H          -1.5689423    -0.6463548     2.2869524
C           5.7925588     0.9012590     0.4487282
H           6.7279798     1.4055477     0.6728537
C           4.6364631     1.1843411     1.1805547
H           4.6660357     1.9160366     1.9842999
C           0.2151987    -0.9228471     1.1028003
H           0.6261163    -1.7322832     1.6968089
C           3.4356960     0.5415275     0.8993261
H           2.5537649     0.7777770     1.4852577
C           3.3531654    -0.4128679    -0.1355437
C           4.5186466    -0.6860167    -0.8757574
H           4.4981516    -1.3983868    -1.6920132
C           5.7180879    -0.0377752    -0.5778073
H           6.6008725    -0.2711832    -1.1681736
26
006_C12H12N2_0-5-6-21 (90,) energy =    -573.9934646
N           0.3134653     0.3745583    -0.9200972
C          -0.8555508     0.9153718    -0.5557430
H          -1.3127567     1.5901137    -1.2778907
C          -1.4767513     0.6637869     0.6677782
H          -2.4214106     1.1393987     0.9131443
C           0.9010899    -0.4726414    -0.0674797
N           2.1342580    -1.0720290    -0.4715288
C           2.0617939    -1.8128065    -1.7315884
H           2.3165418    -1.1944620    -2.6034543
H           1.0438009    -2.1854064    -1.8574626
H           2.7343864    -2.6766491    -1.6993062
C          -0.8526927    -0.2145891     1.5537197
H          -1.3025084    -0.4481034     2.5150204
C           5.7912358     0.8338722     0.5336420
H           6.7293627     1.3127678     0.7982803
C           4.6039345     1.1838045     1.1798623
H           4.6101315     1.9462279     1.9550707
C           0.3542754    -0.8009496     1.1788375
H           0.8744412    -1.5031031     1.8217228
C           3.3975514     0.5765181     0.8445252
H           2.4923232     0.8782564     1.3591510
C           3.3417595    -0.4145009    -0.1570629
C           4.5419621    -0.7559766    -0.8106877
H           4.5471495    -1.5037254    -1.5945520
C           5.7436935    -0.1390585    -0.4629643
H           6.6513218    -0.4269670    -0.9879313
26
006_C12H12N2_0-5-6-21 (105,) energy =    -573.9952213
N           0.0858450     0.2162595    -0.7031047
C          -1.0677580     0.6293473    -0.1581530
H          -1.7013235     1.2401066    -0.7998469
C          -1.4577974     0.3356119     1.1451863
H          -2.3987666     0.7085440     1.5375810
C           0.8856211    -0.5588778     0.0386719
N           2.1030928    -1.0193432    -0.5285195
C           2.0459911    -1.2534288    -1.9817424
H           2.9388547    -1.8024788    -2.2881991
H           1.9826173    -0.3207034    -2.5563864
H           1.1673565    -1.8616565    -2.2100896
C          -0.6044108    -0.4551886     1.9216977
H          -0.8693650    -0.7199287     2.9419788
C           5.7168453     0.7875900     0.7798907
H           6.6467373     1.2397394     1.1131472
C           4.5083687     1.4678078     0.9260385
H           4.4920755     2.4607516     1.3682618
C           0.5804017    -0.9163524     1.3637765
H           1.2646410    -1.5507629     1.9173348
C           3.3115350     0.8945380     0.4925007
H           2.3821800     1.4457141     0.5893526
C           3.3054753    -0.3856871    -0.0808556
C           4.5247579    -1.0712007    -0.2140839
H           4.5265000    -2.0743665    -0.6306668
C           5.7169391    -0.4851975     0.2027433
H           6.6491639    -1.0331000     0.0913547
26
006_C12H12N2_0-5-6-21 (120,) energy =    -573.9981810
N          -0.0340829     0.0515281    -0.7597729
C          -1.1982505     0.4002516    -0.1909434
H          -1.9281579     0.8583766    -0.8570614
C          -1.4866687     0.2248542     1.1575632
H          -2.4420500     0.5392361     1.5656767
C           0.8879251    -0.5385229     0.0105399
N           2.0993354    -0.9403813    -0.5893428
C           2.0591435    -1.1039824    -2.0504331
H           2.9671350    -1.6202866    -2.3695211
H           1.9876868    -0.1441176    -2.5783891
H           1.1914014    -1.7088663    -2.3211656
C          -0.5081578    -0.3741643     1.9609635
H          -0.6890886    -0.5450325     3.0190381
C           5.7451354     0.6932028     0.8423167
H           6.6835824     1.1041735     1.2037961
C           4.5685467     1.4377171     0.9321207
H           4.5875622     2.4378872     1.3574357
C           0.6903685    -0.7690144     1.3876049
H           1.4651986    -1.2578088     1.9687918
C           3.3619044     0.9171696     0.4625533
H           2.4553700     1.5114501     0.5175757
C           3.3142501    -0.3713553    -0.0891969
C           4.4988877    -1.1200872    -0.1674332
H           4.4618960    -2.1272751    -0.5728682
C           5.7038284    -0.5875226     0.2855235
H           6.6111524    -1.1821788     0.2178985
26
006_C12H12N2_0-5-6-21 (135,) energy =    -574.0006262
N          -0.1437646    -0.1013672    -0.7856283
C          -1.3185925     0.1737184    -0.1998691
H          -2.1205352     0.4687246    -0.8755375
C          -1.5378840     0.1157959     1.1709968
H          -2.5081670     0.3625395     1.5899107
C           0.8737378    -0.4885755    -0.0040140
N           2.0806790    -0.8238444    -0.6325295
C           2.0461575    -0.9664673    -2.0931999
H           2.9803891    -1.4287739    -2.4188068
H           1.9275241    -0.0010535    -2.6033464
H           1.2078207    -1.6047298    -2.3772673
C          -0.4656623    -0.2778914     1.9826069
H          -0.5864942    -0.3541344     3.0602186
C           5.7719269     0.5994588     0.8937119
H           6.7225975     0.9592190     1.2772150
C           4.6388183     1.4131428     0.9452046
H           4.7056758     2.4147068     1.3621562
C           0.7511038    -0.5912488     1.3999878
H           1.5941829    -0.9219528     1.9967697
C           3.4177376     0.9584630     0.4470411
H           2.5432870     1.6013512     0.4735008
C           3.3110833    -0.3310382    -0.0942569
C           4.4503372    -1.1481041    -0.1347077
H           4.3644977    -2.1538524    -0.5364001
C           5.6723247    -0.6819501     0.3471963
H           6.5454164    -1.3281229     0.3091281
26
006_C12H12N2_0-5-6-21 (150,) energy =    -574.0020479
N          -0.1913900    -0.2545097    -0.8256396
C          -1.3775419    -0.0582994    -0.2334020
H          -2.2213491     0.0713075    -0.9102945
C          -1.5641710    -0.0055787     1.1423286
H          -2.5485724     0.1673055     1.5649344
C           0.8850028    -0.4321246    -0.0436134
N           2.0921743    -0.6902870    -0.6915450
C           2.0591261    -0.8665461    -2.1464652
H           3.0303867    -1.2446326    -2.4709071
H           1.8489830     0.0756551    -2.6703469
H           1.2792804    -1.5810024    -2.4154257
C          -0.4364463    -0.1919016     1.9526390
H          -0.5262435    -0.1774938     3.0359750
C           5.8203645     0.4940246     0.9365235
H           6.7811462     0.7946022     1.3449521
C           4.7347540     1.3714301     0.9718499
H           4.8495035     2.3634175     1.4009866
C           0.7995389    -0.4134217     1.3689664
H           1.6820960    -0.5832467     1.9749307
C           3.5023537     0.9923587     0.4403664
H           2.6649739     1.6834358     0.4532751
C           3.3343122    -0.2838362    -0.1173722
C           4.4252586    -1.1645232    -0.1417314
H           4.2926252    -2.1592011    -0.5580076
C           5.6605785    -0.7735951     0.3732044
H           6.4962766    -1.4679049     0.3466821
26
006_C12H12N2_0-5-6-21 (165,) energy =    -574.0023588
N          -0.2185019    -0.3823919    -0.8434019
C          -1.4117722    -0.2648001    -0.2473165
H          -2.2711536    -0.2939885    -0.9165401
C          -1.5905897    -0.1117881     1.1221776
H          -2.5836480    -0.0146321     1.5485317
C           0.8824793    -0.3573312    -0.0728477
N           2.0899653    -0.5243667    -0.7396264
C           2.0521481    -0.8045694    -2.1771219
H           3.0716724    -0.9919139    -2.5171861
H           1.6364586     0.0413079    -2.7380136
H           1.4282929    -1.6780451    -2.3845429
C          -0.4401209    -0.0997460     1.9208262
H          -0.5189378    -0.0021505     3.0007806
C           5.8530064     0.3858387     0.9743857
H           6.8228380     0.6189005     1.4048580
C           4.8200762     1.3247967     1.0158815
H           4.9858048     2.2975471     1.4715142
C           0.8086496    -0.2269799     1.3354715
H           1.7068172    -0.2412922     1.9409374
C           3.5775002     1.0329579     0.4545753
H           2.7824443     1.7723869     0.4673301
C           3.3432768    -0.2171526    -0.1384462
C           4.3815824    -1.1594585    -0.1695883
H           4.2005813    -2.1337744    -0.6146671
C           5.6290075    -0.8545931     0.3744194
H           6.4231890    -1.5957342     0.3410553
26
006_C12H12N2_0-5-6-21 (180,) energy =    -574.0021055
N          -0.2151432    -0.4725399    -0.8222504
C          -1.4043611    -0.4386956    -0.2094969
H          -2.2654213    -0.6079625    -0.8554660
C          -1.5777750    -0.2136230     1.1509371
H          -2.5682925    -0.1969145     1.5935240
C           0.8901740    -0.2678599    -0.0844320
N           2.0921855    -0.3195005    -0.7824162
C           2.0600604    -0.7601050    -2.1788283
H           3.0620081    -0.6470808    -2.5958665
H           1.3571864    -0.1480264    -2.7490300
H           1.7392580    -1.8051332    -2.2741514
C          -0.4223718    -0.0264914     1.9187273
H          -0.4924706     0.1326616     2.9919803
C           5.8850658     0.2827887     0.9972099
H           6.8625615     0.4414194     1.4438594
C           4.9089225     1.2794840     1.0677247
H           5.1275929     2.2225880     1.5616703
C           0.8238921    -0.0546188     1.3139447
H           1.7246495     0.0690456     1.9017099
C           3.6579915     1.0847261     0.4842967
H           2.9097091     1.8710382     0.5114773
C           3.3554191    -0.1256983    -0.1586922
C           4.3379033    -1.1244821    -0.2227404
H           4.1088904    -2.0667973    -0.7119710
C           5.5956645    -0.9158667     0.3438309
H           6.3461197    -1.6997377     0.2839228
