30
032_C14H14N2_2-0-16-17 (-165,) energy =    -651.3673817
C           1.3136757    -1.5411336    -0.8525092
H           1.6426277    -2.3078945    -1.5743475
C           1.8166068    -1.9611770     0.5119856
H           1.4924723    -2.9259105     0.8941861
C           2.7059374    -1.2663305     1.2367723
H           3.0813638    -1.6321158     2.1879534
N           3.1587160    -0.0007864     0.8724873
H           4.0338734     0.3148756     1.2649025
C           2.8240722     0.4490323    -0.4082671
H           3.2672040     1.3986554    -0.6921835
C           1.9868619    -0.2169111    -1.2145549
H           1.7442017     0.2216636    -2.1768948
C          -2.8906299    -1.2914862    -2.1973636
H          -3.9056505    -1.2668357    -2.5855844
C          -2.6674760    -1.2913265    -0.8148626
C          -1.3356718    -1.3131102    -0.2681390
C          -0.2134448    -1.4367514    -1.1316918
C          -0.5021213    -1.3683509    -2.5024674
H           0.3344569    -1.4352589    -3.1954178
C          -1.7943361    -1.3020694    -3.0410001
H          -1.9250580    -1.2812012    -4.1196720
N          -1.4918163    -1.2129122     1.1198747
C          -0.5099166    -0.9381665     2.1562886
H          -1.0427816    -0.5471740     3.0275127
H           0.2081800    -0.1874797     1.8230922
H           0.0386601    -1.8343776     2.4555523
C          -2.8449313    -1.1604268     1.4116973
H          -3.1576650    -1.0687760     2.4433044
C          -3.5914819    -1.2184595     0.2742021
H          -4.6703196    -1.1906513     0.2067621
30
032_C14H14N2_2-0-16-17 (-150,) energy =    -651.3722414
C           1.3311502    -1.4716586    -0.8987669
H           1.7375141    -2.0559065    -1.7421131
C           1.8190996    -2.1191104     0.3838202
H           1.4732894    -3.1255129     0.6051783
C           2.7198472    -1.5618511     1.2063000
H           3.0977038    -2.0792993     2.0831879
N           3.1671555    -0.2511003     1.0589266
H           4.0383609     0.0102130     1.4956814
C           2.7604894     0.4508203    -0.0780882
H           3.1557063     1.4588552    -0.1607891
C           1.9041397    -0.0584073    -0.9755917
H           1.5883835     0.5643776    -1.8070274
C          -2.9022202    -1.4973383    -2.1443191
H          -3.9296512    -1.5448764    -2.4963344
C          -2.6324324    -1.3928804    -0.7725237
C          -1.2829028    -1.3172536    -0.2857607
C          -0.1886695    -1.4622192    -1.1792660
C          -0.5216688    -1.4868211    -2.5393180
H           0.2939731    -1.5567949    -3.2566555
C          -1.8374651    -1.5095729    -3.0277943
H          -2.0098500    -1.5612251    -4.0995588
N          -1.3776364    -1.1095793     1.0929373
C          -0.3553298    -0.6828953     2.0373244
H          -0.8457435    -0.1199498     2.8370003
H           0.3667594    -0.0284192     1.5480042
H           0.1807891    -1.5281448     2.4753091
C          -2.7167343    -1.0916695     1.4453210
H          -2.9879885    -0.9255012     2.4794630
C          -3.5097518    -1.2745353     0.3514844
H          -4.5907624    -1.2965136     0.3347684
30
032_C14H14N2_2-0-16-17 (-135,) energy =    -651.3761073
C           1.3215865    -1.3515820    -0.9515382
H           1.7655532    -1.7887110    -1.8623976
C           1.8326688    -2.1567860     0.2318380
H           1.5044442    -3.1886277     0.3215345
C           2.7228365    -1.6871594     1.1180470
H           3.1168278    -2.3006722     1.9229157
N           3.1419386    -0.3576171     1.1322649
H           4.0057444    -0.1296320     1.6004519
C           2.6962601     0.4833814     0.1113405
H           3.0643279     1.5037611     0.1637108
C           1.8292537     0.0814735    -0.8303870
H           1.4788574     0.8025962    -1.5626859
C          -2.9185258    -1.6139851    -2.1426964
H          -3.9501044    -1.7061718    -2.4731566
C          -2.6328147    -1.3845886    -0.7884429
C          -1.2780800    -1.2509529    -0.3314194
C          -0.1920854    -1.4227551    -1.2323355
C          -0.5431792    -1.6033869    -2.5743888
H           0.2628072    -1.7135768    -3.2969012
C          -1.8665856    -1.7014870    -3.0359592
H          -2.0529956    -1.8624045    -4.0944636
N          -1.3552202    -0.9555831     1.0303938
C          -0.3037726    -0.5883713     1.9662188
H          -0.7618959    -0.0284269     2.7866425
H           0.4337133     0.0502428     1.4805587
H           0.2052735    -1.4654659     2.3740862
C          -2.6868839    -0.9337757     1.4044204
H          -2.9427382    -0.7127387     2.4321470
C          -3.4948812    -1.1959653     0.3367365
H          -4.5756745    -1.2307957     0.3387564
30
032_C14H14N2_2-0-16-17 (-120,) energy =    -651.3777485
C           1.3081874    -1.2455872    -0.9702142
H           1.7617427    -1.5497010    -1.9295978
C           1.8597634    -2.1790016     0.0971881
H           1.5527704    -3.2203253     0.0670583
C           2.7451108    -1.7902183     1.0266188
H           3.1641908    -2.4800861     1.7531750
N           3.1394661    -0.4607933     1.1819428
H           4.0038815    -0.2685801     1.6645388
C           2.6614746     0.4823167     0.2715471
H           3.0164177     1.4961305     0.4318068
C           1.7752670     0.1762380    -0.6884776
H           1.3982650     0.9684567    -1.3283344
C          -2.9235505    -1.7149488    -2.1312652
H          -3.9537745    -1.8419166    -2.4544538
C          -2.6418495    -1.3584353    -0.8035548
C          -1.2886446    -1.1825128    -0.3573619
C          -0.2000739    -1.3809353    -1.2505742
C          -0.5466711    -1.7302552    -2.5594435
H           0.2601480    -1.8875455    -3.2718416
C          -1.8688587    -1.8970132    -3.0061943
H          -2.0519003    -2.1727682    -4.0413371
N          -1.3671016    -0.8147656     0.9860069
C          -0.3035895    -0.5524049     1.9425151
H          -0.7514667    -0.0849244     2.8236074
H           0.4344964     0.1293493     1.5212851
H           0.2019113    -1.4733198     2.2458401
C          -2.6981805    -0.7780582     1.3587863
H          -2.9546870    -0.5124374     2.3757067
C          -3.5051924    -1.0986705     0.3058905
H          -4.5858671    -1.1363288     0.3095698
30
032_C14H14N2_2-0-16-17 (-105,) energy =    -651.3773448
C           1.0919394    -0.0432910    -0.1218585
H           1.2775048     1.0447358    -0.1653633
C           1.9548247    -0.6781725    -1.2035376
H           1.6944842    -0.4808249    -2.2389116
C           3.0317842    -1.4310866    -0.9323783
H           3.6594067    -1.8503613    -1.7132165
N           3.3939371    -1.7871499     0.3685680
H           4.3488345    -2.0637093     0.5393884
C           2.6604514    -1.2534140     1.4295468
H           3.0130594    -1.5365051     2.4169399
C           1.5612555    -0.5071929     1.2471511
H           1.0038950    -0.1691502     2.1157710
C          -3.2353278     0.0741979    -0.9804410
H          -4.2995290     0.1449034    -1.1911343
C          -2.6759809    -1.1522802    -0.5906626
C          -1.2720921    -1.2666004    -0.3138737
C          -0.4226999    -0.1291053    -0.3890324
C          -1.0356543     1.0570882    -0.8042204
H          -0.4146735     1.9465464    -0.8857849
C          -2.4056464     1.1742495    -1.0955501
H          -2.8056860     2.1369985    -1.4023715
N          -1.0446774    -2.6074814    -0.0049675
C           0.1978732    -3.2884575     0.3219634
H           0.5103924    -3.0905145     1.3507367
H           0.9953493    -2.9766331    -0.3521952
H           0.0361273    -4.3629242     0.1987630
C          -2.2471658    -3.2874891    -0.0678048
H          -2.2656382    -4.3487291     0.1418428
C          -3.2624352    -2.4446385    -0.4165534
H          -4.3024075    -2.7087164    -0.5508708
30
032_C14H14N2_2-0-16-17 (-90,) energy =    -651.3746843
C           1.0763035    -0.0422726    -0.0142478
H           1.2112541     1.0504860     0.0851358
C           1.9709472    -0.4853896    -1.1631428
H           1.7130335    -0.1505686    -2.1628589
C           3.0513370    -1.2605773    -0.9881329
H           3.6916233    -1.5618154    -1.8119130
N           3.4133185    -1.7817711     0.2587086
H           4.3781461    -2.0443737     0.3952490
C           2.6840256    -1.3769450     1.3786721
H           3.0559946    -1.7543919     2.3266277
C           1.5662694    -0.6418992     1.2894899
H           1.0163253    -0.4074775     2.1962667
C          -3.2074298     0.0448968    -1.0702780
H          -4.2636427     0.1167319    -1.3175057
C          -2.6832924    -1.1525878    -0.5614025
C          -1.2891196    -1.2673361    -0.2396749
C          -0.4277651    -0.1428189    -0.3406339
C          -0.9950123     1.0018715    -0.9107065
H          -0.3567082     1.8743670    -1.0352766
C          -2.3492237     1.1118697    -1.2680243
H          -2.7183376     2.0467575    -1.6812904
N          -1.0840645    -2.5933918     0.1425973
C           0.1621864    -3.3059729     0.3788330
H           0.5114798    -3.1924763     1.4081735
H           0.9403372    -2.9469776    -0.2953634
H          -0.0092392    -4.3670276     0.1752733
C          -2.2951995    -3.2606705     0.0899776
H          -2.3301924    -4.3117975     0.3440228
C          -3.2923399    -2.4243619    -0.3200658
H          -4.3331406    -2.6822744    -0.4599890
30
032_C14H14N2_2-0-16-17 (-75,) energy =    -651.3702185
C           1.0701657    -0.0656152     0.0934809
H           1.1216848     1.0049281     0.3678581
C           1.9977936    -0.2487289    -1.0999016
H           1.7290903     0.2425473    -2.0292248
C           3.1056217    -1.0015917    -1.0530034
H           3.7591914    -1.1292982    -1.9106889
N           3.4909018    -1.7104924     0.0915095
H           4.4685792    -1.9430121     0.1872483
C           2.7608809    -1.5029755     1.2632547
H           3.1663462    -1.9890860     2.1457188
C           1.6097411    -0.8157238     1.2914337
H           1.0710707    -0.7326695     2.2311399
C          -3.1576710     0.0011896    -1.1788357
H          -4.2001878     0.0801074    -1.4765548
C          -2.6865563    -1.1694160    -0.5688500
C          -1.3097491    -1.2978808    -0.1788130
C          -0.4213873    -0.1976148    -0.3001224
C          -0.9313201     0.9134290    -0.9835244
H          -0.2681655     1.7642061    -1.1296508
C          -2.2620230     1.0300527    -1.4133074
H          -2.5861120     1.9415360    -1.9085164
N          -1.1570453    -2.6070762     0.2852298
C           0.0619917    -3.3595328     0.5396304
H           0.4359312    -3.2102845     1.5551939
H           0.8449211    -3.0706967    -0.1634607
H          -0.1582032    -4.4211920     0.3952380
C          -2.3837790    -3.2459307     0.2141023
H          -2.4576612    -4.2809362     0.5205975
C          -3.3398344    -2.4096344    -0.2811312
H          -4.3812154    -2.6478749    -0.4487865
30
032_C14H14N2_2-0-16-17 (-60,) energy =    -651.3651764
C           1.0551534    -0.0941015     0.1647072
H           0.9973468     0.9051094     0.6368322
C           2.0297186     0.0358595    -1.0002937
H           1.7846821     0.7255164    -1.7997249
C           3.1531024    -0.6872861    -1.0986812
H           3.8281827    -0.5991627    -1.9444173
N           3.5358634    -1.6262733    -0.1332490
H           4.5172083    -1.8581679    -0.0814892
C           2.8141476    -1.6450947     1.0607927
H           3.2481860    -2.2528559     1.8492373
C           1.6501830    -0.9973177     1.2185183
H           1.1411558    -1.0690645     2.1751845
C          -3.1014666    -0.0427657    -1.3501912
H          -4.1258403     0.0448596    -1.7030613
C          -2.6963314    -1.1815861    -0.6435084
C          -1.3438561    -1.3299597    -0.1742281
C          -0.4140889    -0.2660725    -0.3244175
C          -0.8622606     0.8147312    -1.0969898
H          -0.1767985     1.6448294    -1.2521956
C          -2.1644268     0.9443304    -1.5991340
H          -2.4337270     1.8330674    -2.1636725
N          -1.2737525    -2.6093244     0.3921244
C          -0.1129396    -3.4044715     0.7599860
H           0.2393716    -3.1843452     1.7711781
H           0.7087660    -3.2347684     0.0634598
H          -0.3975634    -4.4593292     0.7123843
C          -2.5225673    -3.2027506     0.3015712
H          -2.6559250    -4.2081837     0.6781850
C          -3.4149180    -2.3709589    -0.3037705
H          -4.4562402    -2.5786431    -0.5081731
30
032_C14H14N2_2-0-16-17 (-45,) energy =    -651.3612920
C           1.0584331    -0.0769310     0.4126340
H           0.9392602     0.6744476     1.2087139
C           2.0097793     0.4930844    -0.6394249
H           1.9436654     1.5407593    -0.9083719
C           2.9054131    -0.2709930    -1.2813956
H           3.5334950     0.1055615    -2.0824750
N           3.1208843    -1.6035974    -0.9238840
H           3.9452091    -2.0554870    -1.2896317
C           2.6944870    -1.9773215     0.3467261
H           3.1916546    -2.8437010     0.7729871
C           1.7712582    -1.2676355     1.0179044
H           1.5687053    -1.5346132     2.0472504
C          -2.8273711    -0.1703812    -1.7313027
H          -3.7373704    -0.1667867    -2.3258550
C          -2.4938144    -1.2921523    -0.9635224
C          -1.2978196    -1.3320743    -0.1619937
C          -0.3777590    -0.2460790    -0.1976599
C          -0.7988341     0.8641823    -0.9438120
H          -0.1537657     1.7359041    -0.9697447
C          -1.9845002     0.9241647    -1.6887251
H          -2.2182656     1.8265560    -2.2476143
N          -1.3403311    -2.5614310     0.5155094
C          -0.5766166    -3.0366414     1.6562571
H          -0.4616722    -2.2462519     2.4039081
H           0.4111694    -3.3999302     1.3693121
H          -1.1355112    -3.8548710     2.1179328
C          -2.4841694    -3.2426980     0.1298673
H          -2.6905705    -4.2120844     0.5635339
C          -3.2014602    -2.5198121    -0.7723534
H          -4.1333348    -2.8079828    -1.2390314
30
032_C14H14N2_2-0-16-17 (-30,) energy =    -651.3634132
C           1.0852458    -0.2044748     0.4879336
H           0.9132942     0.2431475     1.4777835
C           2.0656083     0.6632538    -0.2965215
H           2.0356890     1.7412299    -0.1725301
C           2.9349787     0.1488164    -1.1794610
H           3.5781748     0.7663060    -1.7983364
N           3.1006344    -1.2267347    -1.3189166
H           3.8941483    -1.5520089    -1.8497833
C           2.6749617    -2.0077416    -0.2480093
H           3.1368602    -2.9869099    -0.1679618
C           1.7962837    -1.5451456     0.6560136
H           1.6028834    -2.1598031     1.5226234
C          -2.6600370    -0.3222986    -1.8798045
H          -3.5291532    -0.3590322    -2.5317784
C          -2.3751852    -1.3921010    -1.0198302
C          -1.2392119    -1.3485308    -0.1494982
C          -0.2859048    -0.3024341    -0.2493474
C          -0.6805355     0.7844042    -1.0363825
H          -0.0142873     1.6372122    -1.1073553
C          -1.8323321     0.7861896    -1.8418637
H          -2.0462831     1.6535545    -2.4610824
N          -1.3237887    -2.4828167     0.6701863
C          -0.7716187    -2.6671103     2.0055218
H          -0.3601502    -1.7277401     2.3743898
H           0.0094926    -3.4350053     2.0288403
H          -1.5720979    -2.9678811     2.6895211
C          -2.4392907    -3.2153391     0.2857139
H          -2.6872899    -4.1211127     0.8236674
C          -3.0888785    -2.6048575    -0.7441529
H          -3.9864276    -2.9537776    -1.2365706
30
032_C14H14N2_2-0-16-17 (-15,) energy =    -651.3697509
C           1.0104636    -0.4626593     0.2053169
H           0.8588286    -0.3127259     1.2894943
C           1.9839162     0.5820158    -0.3208525
H           1.6511498     1.6132739    -0.3799097
C           3.2751717     0.3425513    -0.5899068
H           3.9531261     1.1333720    -0.8953024
N           3.8476559    -0.9233921    -0.4837901
H           4.7063573    -1.0878105    -0.9886389
C           2.9594728    -1.9914119    -0.3691028
H           3.3862511    -2.9721410    -0.5556355
C           1.6652849    -1.8270446    -0.0603351
H           1.0404569    -2.7118442    -0.0615336
C          -2.9428610    -0.3582447    -1.7613472
H          -3.8936377    -0.3526795    -2.2881660
C          -2.6156820    -1.4123070    -0.8946877
C          -1.3685365    -1.4134691    -0.2040061
C          -0.3767895    -0.4351253    -0.4649616
C          -0.7994094     0.6508504    -1.2337996
H          -0.1037431     1.4595802    -1.4271181
C          -2.0448315     0.6875880    -1.8889961
H          -2.2866526     1.5416430    -2.5162691
N          -1.3756126    -2.5212792     0.6627338
C          -0.7185586    -2.5955434     1.9663644
H           0.3572484    -2.4445709     1.8870213
H          -0.8895373    -3.5942432     2.3779257
H          -1.1329421    -1.8564104     2.6645298
C          -2.5896206    -3.1811079     0.4898023
H          -2.8061360    -4.0516497     1.0952997
C          -3.3517338    -2.5646639    -0.4555171
H          -4.3257754    -2.8815103    -0.8031202
30
032_C14H14N2_2-0-16-17 (0,) energy =    -651.3755537
C           1.0015700    -0.5294387     0.2254886
H           0.8227887    -0.5014577     1.3141961
C           1.9355824     0.6094616    -0.1485078
H           1.5615058     1.6248800    -0.0593115
C           3.2246676     0.4460802    -0.4782822
H           3.8770154     1.2892433    -0.6831087
N           3.8334091    -0.8053267    -0.5547516
H           4.6792975    -0.8795551    -1.1005886
C           2.9918888    -1.9159236    -0.5196252
H           3.4557717    -2.8563810    -0.8008182
C           1.7026381    -1.8368202    -0.1604725
H           1.1121254    -2.7454476    -0.2024584
C          -2.9019673    -0.3719706    -1.8225802
H          -3.8482446    -0.3492066    -2.3571165
C          -2.6476621    -1.3747030    -0.8727777
C          -1.4054964    -1.3996817    -0.1715117
C          -0.3710522    -0.4780674    -0.4663140
C          -0.7020155     0.5412339    -1.3577233
H           0.0522768     1.2826596    -1.5996817
C          -1.9349138     0.5948675    -2.0360614
H          -2.1141496     1.3989434    -2.7451227
N          -1.4717279    -2.4614752     0.7419493
C          -0.7047793    -2.6299334     1.9703555
H           0.3676584    -2.6709532     1.7777081
H          -1.0018735    -3.5770741     2.4283324
H          -0.9082048    -1.8226382     2.6854454
C          -2.7155719    -3.0644985     0.6045194
H          -2.9715412    -3.8979720     1.2454775
C          -3.4469001    -2.4548652    -0.3716334
H          -4.4372838    -2.7365638    -0.7025789
30
032_C14H14N2_2-0-16-17 (15,) energy =    -651.3792383
C           1.0109769    -0.6244536     0.2491261
H           0.8218484    -0.7066188     1.3319151
C           1.8795787     0.5986811     0.0111592
H           1.4452507     1.5745311     0.2070853
C           3.1668385     0.5379036    -0.3585863
H           3.7749452     1.4290658    -0.4793901
N           3.8337174    -0.6666294    -0.5792776
H           4.6687700    -0.6411175    -1.1456642
C           3.0603793    -1.8256899    -0.6234649
H           3.5772178    -2.7113140    -0.9802064
C           1.7764653    -1.8547930    -0.2381313
H           1.2393320    -2.7942837    -0.3207564
C          -2.8659814    -0.4144079    -1.8376597
H          -3.8111439    -0.3686287    -2.3728048
C          -2.6797133    -1.3550541    -0.8110687
C          -1.4376506    -1.4112792    -0.1081433
C          -0.3586778    -0.5586646    -0.4449277
C          -0.6059970     0.3769516    -1.4472777
H           0.1996271     1.0469477    -1.7321662
C          -1.8305316     0.4536091    -2.1379531
H          -1.9526756     1.1988157    -2.9197603
N          -1.5634572    -2.4177008     0.8545319
C          -0.7009793    -2.7083283     1.9893306
H           0.3291046    -2.8913213     1.6778679
H          -1.0732551    -3.6139082     2.4752075
H          -0.7104664    -1.8952854     2.7257222
C          -2.8380345    -2.9543842     0.7564045
H          -3.1334373    -3.7441044     1.4345631
C          -3.5414274    -2.3500300    -0.2450968
H          -4.5514094    -2.5851715    -0.5520239
30
032_C14H14N2_2-0-16-17 (30,) energy =    -651.3807283
C           1.0215473    -0.7306385     0.2349171
H           0.8366892    -0.9334809     1.3006201
C           1.8116249     0.5639230     0.1430644
H           1.3121144     1.4827853     0.4348358
C           3.0953077     0.6203663    -0.2396495
H           3.6497132     1.5533979    -0.2685437
N           3.8302768    -0.5136485    -0.5885814
H           4.6512437    -0.3775443    -1.1599940
C           3.1316441    -1.7111486    -0.7433992
H           3.7047028    -2.5250528    -1.1769097
C           1.8548657    -1.8595900    -0.3616134
H           1.3780279    -2.8238220    -0.5104184
C          -2.8463309    -0.4438838    -1.8554629
H          -3.7924824    -0.3657157    -2.3851603
C          -2.7202483    -1.3131867    -0.7594899
C          -1.4755025    -1.4132060    -0.0634433
C          -0.3503711    -0.6480723    -0.4516958
C          -0.5270130     0.1948597    -1.5478146
H           0.3228948     0.7866845    -1.8759468
C          -1.7469210     0.3047196    -2.2405065
H          -1.8188545     0.9847383    -3.0854272
N          -1.6585638    -2.3532497     0.9526634
C          -0.7342784    -2.7772038     1.9902292
H           0.2260913    -3.0853652     1.5689125
H          -1.1704441    -3.6378087     2.5038225
H          -0.5594191    -1.9885519     2.7316811
C          -2.9659138    -2.8076954     0.8975817
H          -3.3015824    -3.5448221     1.6150095
C          -3.6425542    -2.2063930    -0.1247931
H          -4.6727547    -2.3820279    -0.4027582
30
032_C14H14N2_2-0-16-17 (45,) energy =    -651.3805776
C           1.0927125    -0.8850603     0.1900826
H           0.9319223    -1.2490710     1.2132791
C           1.7937005     0.4607839     0.2858599
H           1.2352679     1.2926717     0.7039721
C           3.0616404     0.6593906    -0.1022894
H           3.5511643     1.6241493    -0.0100752
N           3.8648062    -0.3627379    -0.6123597
H           4.6580590    -0.0911214    -1.1746977
C           3.2473981    -1.5761966    -0.9204107
H           3.8710943    -2.2849924    -1.4565842
C           1.9902314    -1.8643314    -0.5536640
H           1.5807416    -2.8373386    -0.8086949
C          -2.7709071    -0.4740718    -1.8871264
H          -3.7141888    -0.3558664    -2.4145457
C          -2.7015324    -1.2723257    -0.7345453
C          -1.4597927    -1.4270049    -0.0399829
C          -0.2856085    -0.7737841    -0.4809862
C          -0.4051683    -0.0078301    -1.6411830
H           0.4853180     0.4956553    -2.0070917
C          -1.6177156     0.1496057    -2.3350635
H          -1.6440432     0.7692009    -3.2277482
N          -1.7074721    -2.2846606     1.0336514
C          -0.7868760    -2.7923639     2.0351506
H           0.0866019    -3.2630330     1.5732885
H          -1.3087641    -3.5507747     2.6241926
H          -0.4461955    -2.0052740     2.7174844
C          -3.0461876    -2.6398805     1.0117162
H          -3.4303376    -3.3068088     1.7722112
C          -3.6849067    -2.0476122    -0.0394623
H          -4.7296377    -2.1539826    -0.2974945
30
032_C14H14N2_2-0-16-17 (60,) energy =    -651.3802715
C           1.1249685    -1.0655438     0.0752477
H           1.0035746    -1.6395901     1.0010597
C           1.7302341     0.2865387     0.4242247
H           1.1178623     0.9851752     0.9862290
C           2.9728361     0.6495830     0.0749250
H           3.3880038     1.6178900     0.3375284
N           3.8428750    -0.1977724    -0.6142950
H           4.6039367     0.2324929    -1.1192740
C           3.3112065    -1.3763910    -1.1414393
H           3.9800891    -1.9296177    -1.7937276
C           2.0819189    -1.8177916    -0.8382317
H           1.7434091    -2.7586600    -1.2615225
C          -2.7423983    -0.4953811    -1.9559315
H          -3.6835368    -0.3397749    -2.4773795
C          -2.7116397    -1.2332601    -0.7629734
C          -1.4733351    -1.4399070    -0.0734987
C          -0.2611586    -0.9094662    -0.5722832
C          -0.3478322    -0.1847701    -1.7626766
H           0.5702683     0.2326015    -2.1665264
C          -1.5560230     0.0248188    -2.4482573
H          -1.5530841     0.5996654    -3.3707488
N          -1.7719112    -2.2008423     1.0591937
C          -0.8846315    -2.6977600     2.0949164
H          -0.1209180    -3.3690419     1.6875196
H          -1.4839339    -3.2620759     2.8137999
H          -0.3896243    -1.8815156     2.6319172
C          -3.1335995    -2.4558881     1.0709709
H          -3.5571606    -3.0372456     1.8792541
C          -3.7400400    -1.8885111    -0.0119981
H          -4.7937452    -1.9287396    -0.2515388
30
032_C14H14N2_2-0-16-17 (75,) energy =    -651.3805075
C           1.1624100    -1.2258010    -0.0249055
H           1.0739384    -1.9881001     0.7592801
C           1.6736781     0.0701570     0.5898344
H           1.0074660     0.6161172     1.2513444
C           2.8924544     0.5722689     0.3440796
H           3.2357931     1.5014875     0.7885324
N           3.8253898    -0.0730177    -0.4692924
H           4.5651909     0.4906188    -0.8620928
C           3.3794341    -1.1599081    -1.2238635
H           4.0939960    -1.5401773    -1.9475280
C           2.1755044    -1.7224096    -1.0451743
H           1.9052014    -2.5852164    -1.6462940
C          -2.7407875    -0.5468053    -1.9528422
H          -3.6918706    -0.3701028    -2.4489435
C          -2.7011407    -1.2217756    -0.7228621
C          -1.4489837    -1.4552588    -0.0697936
C          -0.2297826    -1.0311857    -0.6473850
C          -0.3269573    -0.3502933    -1.8617071
H           0.5947866    -0.0051952    -2.3216373
C          -1.5501608    -0.1111506    -2.5116926
H          -1.5543862     0.4178375    -3.4612340
N          -1.7398770    -2.1190842     1.1237878
C          -0.8386010    -2.5603732     2.1730223
H          -0.1910050    -3.3796782     1.8408376
H          -1.4414361    -2.9215223     3.0100654
H          -0.2126745    -1.7386407     2.5351210
C          -3.1113515    -2.2965340     1.2043981
H          -3.5314873    -2.7957351     2.0675317
C          -3.7308019    -1.7714464     0.1071202
H          -4.7943251    -1.7673147    -0.0884496
30
032_C14H14N2_2-0-16-17 (90,) energy =    -651.3807838
C           1.1370724    -1.3528590    -0.1529863
H           1.0703628    -2.2343250     0.5018825
C           1.5726683    -0.1441643     0.6667949
H           0.8614817     0.2812681     1.3685956
C           2.7745026     0.4367901     0.5396525
H           3.0634242     1.3045957     1.1246661
N           3.7558094    -0.0432254    -0.3280948
H           4.4881170     0.5960543    -0.6002647
C           3.3793609    -1.0194892    -1.2519944
H           4.1324579    -1.2622938    -1.9954215
C           2.1939749    -1.6441942    -1.2050021
H           1.9806901    -2.4190312    -1.9350392
C          -2.8079806    -0.6151629    -1.9706170
H          -3.7732553    -0.4230190    -2.4323748
C          -2.7390491    -1.2013334    -0.6962173
C          -1.4684508    -1.4543261    -0.0911101
C          -0.2600673    -1.1329183    -0.7529752
C          -0.3844527    -0.5444856    -2.0107563
H           0.5273981    -0.2762088    -2.5369621
C          -1.6278187    -0.2902763    -2.6182353
H          -1.6544381     0.1655965    -3.6046343
N          -1.7256557    -2.0179339     1.1600705
C          -0.7897428    -2.4993393     2.1612989
H          -0.2836107    -3.4182716     1.8427716
H          -1.3498804    -2.7173035     3.0741902
H          -0.0353173    -1.7445044     2.3988433
C          -3.0976346    -2.1216867     1.3197456
H          -3.4947458    -2.5415055     2.2345046
C          -3.7485482    -1.6383531     0.2209676
H          -4.8196247    -1.5884427     0.0805480
30
032_C14H14N2_2-0-16-17 (105,) energy =    -651.3796504
C           1.1512267    -1.3942197    -0.2543856
H           1.1048299    -2.3483770     0.2976444
C           1.5168587    -0.2751059     0.7161477
H           0.7645062     0.0623083     1.4216317
C           2.7030944     0.3497821     0.6990304
H           2.9438981     1.1552842     1.3860645
N           3.7271064    -0.0013466    -0.1807680
H           4.4535448     0.6798671    -0.3451407
C           3.4129868    -0.8727385    -1.2245306
H           4.2001958    -1.0104698    -1.9593886
C           2.2452362    -1.5273651    -1.2970286
H           2.0875529    -2.2253742    -2.1133931
C          -2.8268959    -0.6557492    -1.9987546
H          -3.8024644    -0.4527332    -2.4333503
C          -2.7259937    -1.1339123    -0.6816691
C          -1.4434122    -1.4025915    -0.1128266
C          -0.2510726    -1.1685575    -0.8390789
C          -0.4068961    -0.7187278    -2.1486237
H           0.4885937    -0.5266828    -2.7325445
C          -1.6651058    -0.4631337    -2.7261558
H          -1.7158990    -0.1033988    -3.7505997
N          -1.6679280    -1.8751144     1.1836233
C          -0.7330760    -2.5045070     2.1029704
H          -0.3955262    -3.4812575     1.7351987
H          -1.2454443    -2.6567615     3.0564291
H           0.1398136    -1.8747002     2.2853912
C          -3.0362896    -1.9078982     1.4027780
H          -3.4120353    -2.2613582     2.3539291
C          -3.7122819    -1.4578249     0.3056079
H          -4.7849181    -1.3601878     0.2084319
30
032_C14H14N2_2-0-16-17 (120,) energy =    -651.3762934
C           1.1688980    -1.3921877    -0.3561735
H           1.1535380    -2.4010711     0.0977103
C           1.4767589    -0.3716685     0.7377029
H           0.6907657    -0.0993355     1.4328437
C           2.6524558     0.2669364     0.8260517
H           2.8551751     1.0038080     1.5972683
N           3.7115492     0.0215523    -0.0486430
H           4.4340827     0.7237011    -0.1108625
C           3.4409422    -0.7255102    -1.1960028
H           4.2515987    -0.7681917    -1.9168617
C           2.2856179    -1.3796977    -1.3811877
H           2.1730655    -1.9899426    -2.2713973
C          -2.8521114    -0.7094884    -2.0285627
H          -3.8375623    -0.5059777    -2.4398828
C          -2.7081687    -1.0690437    -0.6784326
C          -1.4140527    -1.3389383    -0.1412054
C          -0.2431026    -1.1766237    -0.9212249
C          -0.4447115    -0.8879198    -2.2697766
H           0.4259548    -0.7695595    -2.9071237
C          -1.7185775    -0.6484541    -2.8202057
H          -1.8015887    -0.3979608    -3.8746169
N          -1.5982235    -1.7254600     1.1937707
C          -0.7020272    -2.5148861     2.0296006
H          -0.5737969    -3.5310095     1.6350492
H          -1.1443440    -2.5869091     3.0268342
H           0.2777691    -2.0476022     2.1292880
C          -2.9603142    -1.6953202     1.4634168
H          -3.3117063    -1.9874478     2.4443508
C          -3.6632025    -1.2857201     0.3690188
H          -4.7344248    -1.1497927     0.3080467
30
032_C14H14N2_2-0-16-17 (135,) energy =    -651.3706354
C           1.1880981    -1.3745006    -0.4309411
H           1.2189672    -2.4279052    -0.0856403
C           1.4568128    -0.4719272     0.7730601
H           0.6518783    -0.2646991     1.4666963
C           2.6252709     0.1594220     0.9563613
H           2.8044105     0.8099595     1.8070484
N           3.7049047     0.0200404     0.0824381
H           4.4219456     0.7297872     0.1190004
C           3.4522246    -0.5698715    -1.1571236
H           4.2688621    -0.5073128    -1.8696893
C           2.3056523    -1.2035895    -1.4409270
H           2.2185175    -1.6953696    -2.4033972
C          -2.8839605    -0.7885941    -2.0281590
H          -3.8784843    -0.5934257    -2.4210311
C          -2.6949344    -1.0270676    -0.6580916
C          -1.3899737    -1.2865782    -0.1465238
C          -0.2407799    -1.1830062    -0.9689149
C          -0.4926624    -1.0617017    -2.3365111
H           0.3475167    -1.0202912    -3.0211035
C          -1.7812692    -0.8513344    -2.8627257
H          -1.8987699    -0.7142134    -3.9345289
N          -1.5324872    -1.5919571     1.2198791
C          -0.7105602    -2.5347567     1.9775513
H          -0.8128880    -3.5559269     1.5874064
H          -1.0516959    -2.5255162     3.0166730
H           0.3419650    -2.2554821     1.9671293
C          -2.8878457    -1.5027616     1.5287840
H          -3.2141186    -1.7338056     2.5345504
C          -3.6168434    -1.1403055     0.4374609
H          -4.6850926    -0.9737035     0.4039831
30
032_C14H14N2_2-0-16-17 (150,) energy =    -651.3635633
C           1.3776336    -1.6654207    -0.4805821
H           1.4663348    -2.7646708    -0.4433241
C           1.7629002    -1.1227232     0.8882666
H           1.5080313    -1.6624477     1.7867231
C           2.4403485     0.0294724     1.0197395
H           2.6844449     0.4602669     1.9860252
N           2.9293227     0.7245434    -0.0850605
H           3.5888347     1.4679471     0.0869378
C           3.0649463     0.0047735    -1.2709829
H           3.7584921     0.4213652    -1.9947342
C           2.4090411    -1.1484634    -1.4714615
H           2.6081295    -1.7116924    -2.3768295
C          -2.6470870    -0.6087568    -2.0076158
H          -3.6019808    -0.2695305    -2.4011180
C          -2.4895750    -0.8424848    -0.6344428
C          -1.2391225    -1.2988382    -0.1081395
C          -0.0852572    -1.3675055    -0.9307856
C          -0.3285075    -1.2358491    -2.3019300
H           0.5087341    -1.3288592    -2.9848478
C          -1.5713422    -0.8608853    -2.8407985
H          -1.6675617    -0.7347898    -3.9161327
N          -1.4551267    -1.5711249     1.2514825
C          -0.7513471    -2.5331489     2.0908282
H          -1.4722341    -3.2363918     2.5209635
H          -0.2110748    -2.0481190     2.9115341
H          -0.0482390    -3.1109464     1.4915317
C          -2.7716862    -1.2466145     1.5544599
H          -3.1387711    -1.4140429     2.5587494
C          -3.4237952    -0.7837927     0.4522217
H          -4.4552086    -0.4620125     0.4020159
30
032_C14H14N2_2-0-16-17 (165,) energy =    -651.3612467
C           1.3759567    -1.7645489    -0.6090535
H           1.5508945    -2.8162526    -0.8823029
C           1.8625487    -1.5721194     0.8131335
H           1.7856106    -2.3919775     1.5149291
C           2.4431408    -0.4325406     1.2264806
H           2.7681565    -0.2764650     2.2508690
N           2.7319150     0.5988813     0.3381588
H           3.3264881     1.3443807     0.6668911
C           2.8280728     0.2442430    -1.0087486
H           3.4057293     0.9201907    -1.6311654
C           2.2787557    -0.8867300    -1.4756302
H           2.4602525    -1.1587736    -2.5090439
C          -2.6978957    -0.7460620    -2.0508909
H          -3.6603150    -0.4347440    -2.4489750
C          -2.5253174    -0.9027647    -0.6706117
C          -1.2658210    -1.3175379    -0.1098547
C          -0.1305624    -1.4899936    -0.9510194
C          -0.3878249    -1.3769022    -2.3246250
H           0.4339936    -1.5404809    -3.0130522
C          -1.6259307    -1.0224921    -2.8785650
H          -1.7237067    -0.9419543    -3.9580697
N          -1.4928509    -1.4508174     1.2692706
C          -0.7032274    -2.1143407     2.2924148
H          -1.3731797    -2.3885732     3.1117409
H           0.0899569    -1.4744951     2.6833829
H          -0.2592095    -3.0344155     1.9022942
C          -2.8085242    -1.1074562     1.5387335
H          -3.1698327    -1.1651469     2.5568589
C          -3.4632358    -0.7556832     0.3989199
H          -4.4964270    -0.4479481     0.3147514
30
032_C14H14N2_2-0-16-17 (180,) energy =    -651.3628232
C           1.3649746    -1.6636029    -0.7497956
H           1.6264256    -2.6068700    -1.2558288
C           1.9234252    -1.7317425     0.6542073
H           1.7740165    -2.6454984     1.2198392
C           2.6518747    -0.7586140     1.2258850
H           3.0495969    -0.8528960     2.2320825
N           2.9575730     0.4307129     0.5736872
H           3.7135155     0.9844645     0.9486168
C           2.7821181     0.4381089    -0.8121144
H           3.2430704     1.2710143    -1.3334502
C           2.0974071    -0.5179472    -1.4540069
H           2.0219380    -0.4438412    -2.5324737
C          -2.7979146    -0.9612718    -2.1002760
H          -3.7870746    -0.7392832    -2.4924818
C          -2.5868281    -1.0140639    -0.7178796
C          -1.2901062    -1.3013271    -0.1561643
C          -0.1734883    -1.5092734    -1.0154149
C          -0.4629915    -1.4679710    -2.3883111
H           0.3518272    -1.6579064    -3.0817570
C          -1.7261310    -1.2122142    -2.9361885
H          -1.8485594    -1.1999158    -4.0160026
N          -1.4782528    -1.3030226     1.2345518
C          -0.5949567    -1.7083255     2.3131258
H          -1.1786719    -1.7133381     3.2371254
H           0.2476092    -1.0269738     2.4280972
H          -0.2098752    -2.7201851     2.1510259
C          -2.8076478    -1.0240873     1.5063069
H          -3.1387664    -0.9930260     2.5356564
C          -3.5106852    -0.8330215     0.3572001
H          -4.5627111    -0.5980991     0.2725233
