18
291_C7H9NO_16-8-9-10 (-165,) energy =    -402.1362780
O           3.2985006     0.3301974    -1.8047524
C           5.5490475     0.8244282     1.5723133
H           6.1329660     0.8872944     2.4827762
C           4.4354507     1.6781795     1.3314800
H           4.1595199     2.4280549     2.0689232
C           3.7140224     1.5473894     0.1834362
H           2.8460202     2.1618388    -0.0285767
C           4.0063450     0.5371037    -0.8219217
N           5.1963401    -0.2065924    -0.5729996
C           5.6473449    -1.3222522    -1.4514737
C           5.2005367    -1.3221612    -2.9120824
H           4.1328309    -1.4958752    -3.0175063
H           5.7543744    -2.1230206    -3.4182602
H           5.4391112    -0.3778375    -3.4091547
H           5.3250226    -2.2607919    -0.9805366
H           6.7416931    -1.3038588    -1.4118798
C           5.8767769    -0.0860980     0.6135964
H           6.7207814    -0.7589620     0.7290490
18
291_C7H9NO_16-8-9-10 (-150,) energy =    -402.1393537
O           3.1583710     0.0874973    -1.6518176
C           5.6092398     0.8723298     1.5111972
H           6.2387277     0.9917585     2.3848514
C           4.4533334     1.6763213     1.3020966
H           4.1944168     2.4473983     2.0236759
C           3.6656401     1.4682573     0.2092506
H           2.7576587     2.0340581     0.0323602
C           3.9323545     0.4138223    -0.7538792
N           5.1854207    -0.2420884    -0.5758478
C           5.5498101    -1.3931203    -1.4396580
C           5.2969712    -1.2300848    -2.9385858
H           4.2344634    -1.2063947    -3.1644747
H           5.7674952    -2.0754963    -3.4548698
H           5.7532405    -0.3093051    -3.3187810
H           5.0002420    -2.2721702    -1.0772706
H           6.6133753    -1.5762223    -1.2614137
C           5.9195576    -0.0638913     0.5705587
H           6.7953637    -0.6983535     0.6617138
18
291_C7H9NO_16-8-9-10 (-135,) energy =    -402.1429376
O           3.0856169    -0.0669374    -1.5503249
C           5.6765524     0.9396343     1.4354229
H           6.3534532     1.1220674     2.2614122
C           4.4784766     1.6885824     1.2665462
H           4.2358484     2.4800057     1.9715920
C           3.6295081     1.4056888     0.2366567
H           2.6911169     1.9308312     0.0970766
C           3.8831161     0.3274808    -0.7000607
N           5.1627615    -0.2837659    -0.5628052
C           5.4747933    -1.4423667    -1.4280349
C           5.4122833    -1.1544643    -2.9285867
H           4.4003522    -0.8875611    -3.2271363
H           5.7262446    -2.0523276    -3.4732891
H           6.0925048    -0.3392163    -3.2007808
H           4.7615215    -2.2387679    -1.1837285
H           6.4730850    -1.7865583    -1.1443711
C           5.9635738    -0.0301099     0.5201407
H           6.8651995    -0.6308687     0.5818473
18
291_C7H9NO_16-8-9-10 (-120,) energy =    -402.1456497
O           2.9969796    -0.1792671    -1.4647720
C           5.7028724     0.9914909     1.3654490
H           6.4279857     1.2393990     2.1312246
C           4.4625934     1.6795049     1.2563706
H           4.2340430     2.4855219     1.9495563
C           3.5567052     1.3270392     0.2975263
H           2.5936096     1.8161978     0.2028074
C           3.8008264     0.2434722    -0.6332780
N           5.0917073    -0.3464520    -0.5225240
C           5.3837009    -1.4890530    -1.4088066
C           5.4889535    -1.1030091    -2.8848356
H           4.5442373    -0.6836557    -3.2318605
H           5.7186700    -1.9953580    -3.4780792
H           6.2889099    -0.3713860    -3.0453460
H           4.5751323    -2.2154976    -1.2790250
H           6.3131803    -1.9434316    -1.0544855
C           5.9654219    -0.0080239     0.4736281
H           6.8914266    -0.5735516     0.4938216
18
291_C7H9NO_16-8-9-10 (-105,) energy =    -402.1469988
O           2.9015163    -0.2539825    -1.3912000
C           5.7172946     1.0366507     1.2818112
H           6.4859109     1.3403678     1.9822674
C           4.4482084     1.6777419     1.2375041
H           4.2394131     2.4993370     1.9185787
C           3.4920158     1.2673965     0.3527028
H           2.5139467     1.7327854     0.3015802
C           3.7166747     0.1777372    -0.5752687
N           5.0107936    -0.4075691    -0.4868338
C           5.2939803    -1.5268471    -1.4009982
C           5.5684135    -1.0661119    -2.8330469
H           4.6961842    -0.5418047    -3.2290084
H           5.7705665    -1.9352478    -3.4690383
H           6.4373073    -0.3998014    -2.8764973
H           4.4188104    -2.1810375    -1.3849698
H           6.1466604    -2.0761458    -0.9909019
C           5.9497062     0.0085924     0.4136993
H           6.8912577    -0.5307806     0.3897507
18
291_C7H9NO_16-8-9-10 (-90,) energy =    -402.1470451
O           2.7879073    -0.2995491    -1.2902766
C           5.7417538     1.0766434     1.1851601
H           6.5534446     1.4203849     1.8149616
C           4.4550810     1.6832427     1.2233057
H           4.2756692     2.5147380     1.9007551
C           3.4478240     1.2315331     0.4192356
H           2.4594219     1.6774291     0.4249743
C           3.6357874     0.1368592    -0.5116775
N           4.9359574    -0.4417992    -0.4747100
C           5.1997298    -1.5438096    -1.4135628
C           5.6637400    -1.0457704    -2.7826838
H           4.8923185    -0.4153771    -3.2335002
H           5.8461084    -1.8964794    -3.4487626
H           6.5909609    -0.4669529    -2.7038698
H           4.2665419    -2.1005005    -1.5105867
H           5.9516882    -2.1945911    -0.9555494
C           5.9340933     0.0309572     0.3287478
H           6.8843781    -0.4873455     0.2458710
18
291_C7H9NO_16-8-9-10 (-75,) energy =    -402.1463183
O           2.6657523    -0.3730355    -1.1299405
C           5.7610705     1.1227463     1.0927557
H           6.6076008     1.5010504     1.6530666
C           4.4599183     1.6832244     1.2305195
H           4.3047228     2.5134411     1.9154894
C           3.4095811     1.1887501     0.5121328
H           2.4094290     1.5996633     0.5933730
C           3.5606977     0.0933728    -0.4258742
N           4.8806593    -0.4404938    -0.4875440
C           5.1263938    -1.5331248    -1.4430757
C           5.8034465    -1.0510359    -2.7265609
H           5.1727376    -0.3187258    -3.2401481
H           5.9669112    -1.8971126    -3.4031840
H           6.7751840    -0.5874234    -2.5217457
H           4.1502435    -1.9664897    -1.6605016
H           5.7415071    -2.2872147    -0.9391600
C           5.9216599     0.0785888     0.2288114
H           6.8806884    -0.4062112     0.0739059
18
291_C7H9NO_16-8-9-10 (-60,) energy =    -402.1452132
O           2.5621178    -0.4640867    -0.9592591
C           5.7616628     1.1749964     0.9998311
H           6.6322304     1.5870372     1.4958896
C           4.4525023     1.6781950     1.2416738
H           4.3147211     2.4988618     1.9417003
C           3.3727208     1.1389999     0.6044377
H           2.3645631     1.5035881     0.7669086
C           3.4957690     0.0485045    -0.3434576
N           4.8327237    -0.4163638    -0.5260872
C           5.0489008    -1.5034844    -1.4983281
C           5.9355225    -1.0963343    -2.6755002
H           5.4945629    -0.2560813    -3.2217694
H           6.0341568    -1.9396060    -3.3677540
H           6.9437979    -0.8074822    -2.3589564
H           4.0532868    -1.7888914    -1.8374687
H           5.4863318    -2.3570178    -0.9656667
C           5.9003643     0.1445840     0.1159922
H           6.8660100    -0.2948733    -0.1116119
18
291_C7H9NO_16-8-9-10 (-45,) energy =    -402.1440513
O           2.5096462    -0.5616792    -0.7935509
C           5.7497838     1.2485077     0.9272639
H           6.6317912     1.6976639     1.3678503
C           4.4383623     1.6782583     1.2718249
H           4.3088834     2.4809377     1.9939173
C           3.3455772     1.0903874     0.7035296
H           2.3335642     1.3953672     0.9453611
C           3.4577728     0.0131765    -0.2596670
N           4.8010100    -0.3601453    -0.5687614
C           4.9782973    -1.4424756    -1.5578774
C           6.0501998    -1.1633645    -2.6098341
H           5.8562600    -0.2193192    -3.1300699
H           6.0362730    -1.9690133    -3.3516768
H           7.0625061    -1.1257085    -2.1936342
H           3.9978545    -1.5654666    -2.0183342
H           5.2023699    -2.3731605    -1.0204107
C           5.8797147     0.2426531     0.0134614
H           6.8501706    -0.1332539    -0.2891607
18
291_C7H9NO_16-8-9-10 (-30,) energy =    -402.1436030
O           2.5184020    -0.6719108    -0.6885201
C           5.7472362     1.3112406     0.8429132
H           6.6300021     1.8023136     1.2345603
C           4.4411688     1.6523669     1.2887437
H           4.3160120     2.4278648     2.0406839
C           3.3472250     1.0130853     0.7801269
H           2.3382505     1.2473709     1.1007375
C           3.4584002    -0.0353143    -0.2129302
N           4.7937740    -0.3078970    -0.6363346
C           4.9353422    -1.3763915    -1.6470372
C           6.1525418    -1.2423717    -2.5567582
H           6.1861514    -0.2599408    -3.0402382
H           6.0842524    -2.0023036    -3.3420888
H           7.1018161    -1.4058195    -2.0353477
H           4.0112558    -1.3478876    -2.2262823
H           4.9430749    -2.3445445    -1.1300506
C           5.8740422     0.3382466    -0.1075080
H           6.8418494     0.0368364    -0.4884761
18
291_C7H9NO_16-8-9-10 (-15,) energy =    -402.1437043
O           2.5256096    -0.7474286    -0.6097564
C           5.7317650     1.3664062     0.7814862
H           6.6110590     1.8950407     1.1296450
C           4.4410219     1.6276522     1.3157156
H           4.3246413     2.3783212     2.0937997
C           3.3506505     0.9433860     0.8593301
H           2.3531241     1.1162791     1.2476586
C           3.4547909    -0.0721780    -0.1668501
N           4.7726904    -0.2674461    -0.6750936
C           4.8799924    -1.3084043    -1.7183930
C           6.1959819    -1.3256068    -2.4859483
H           6.4084958    -0.3596828    -2.9573198
H           6.1199675    -2.0742876    -3.2810172
H           7.0508819    -1.6046278    -1.8602249
H           4.0385329    -1.1440963    -2.3957405
H           4.6941542    -2.2791980    -1.2441996
C           5.8500996     0.4217285    -0.1991005
H           6.8064474     0.1829116    -0.6462176
18
291_C7H9NO_16-8-9-10 (0,) energy =    -402.1438184
O           2.5463090    -0.7977132    -0.5617892
C           5.7189000     1.4288046     0.7243427
H           6.5872970     1.9980784     1.0335595
C           4.4496071     1.6090957     1.3371976
H           4.3391875     2.3358291     2.1385346
C           3.3716746     0.8771444     0.9271055
H           2.3899889     0.9903625     1.3734701
C           3.4673843    -0.1012566    -0.1349199
N           4.7674164    -0.2322886    -0.7049235
C           4.8554126    -1.2336778    -1.7880364
C           6.2325208    -1.3950717    -2.4177496
H           6.5866125    -0.4728966    -2.8917488
H           6.1640961    -2.1594216    -3.1983823
H           6.9863850    -1.7296224    -1.6965128
H           4.1148320    -0.9522091    -2.5432454
H           4.5048858    -2.1838196    -1.3728041
C           5.8314351     0.5087748    -0.2804568
H           6.7726477     0.3283266    -0.7831620
18
291_C7H9NO_16-8-9-10 (15,) energy =    -402.1437043
O           2.5575645    -0.8488708    -0.5134189
C           5.6942916     1.4847389     0.6691673
H           6.5484049     2.0930581     0.9416838
C           4.4550038     1.5833742     1.3577202
H           4.3542782     2.2846909     2.1826277
C           3.3941673     0.8056400     0.9900605
H           2.4345951     0.8585889     1.4922234
C           3.4745238    -0.1348973    -0.1072971
N           4.7513239    -0.2002976    -0.7388070
C           4.8316299    -1.1560757    -1.8629156
C           6.2408162    -1.4680937    -2.3508745
H           6.7342681    -0.6041227    -2.8094549
H           6.1741157    -2.2463590    -3.1178752
H           6.8789763    -1.8481277    -1.5454628
H           4.2150912    -0.7649330    -2.6806706
H           4.3294796    -2.0647634    -1.5223535
C           5.7961643     0.5919392    -0.3606382
H           6.7154612     0.4701983    -0.9188682
18
291_C7H9NO_16-8-9-10 (30,) energy =    -402.1436030
O           2.5985958    -0.9258767    -0.4474987
C           5.6723429     1.5479088     0.6183480
H           6.5046560     2.1985849     0.8585391
C           4.4710413     1.5578359     1.3784279
H           4.3780913     2.2315709     2.2269070
C           3.4368866     0.7294217     1.0492776
H           2.5067423     0.7145099     1.6063414
C           3.5032551    -0.1774654    -0.0780264
N           4.7458846    -0.1568618    -0.7796250
C           4.8385407    -1.0708739    -1.9368809
C           6.2492890    -1.5490104    -2.2659739
H           6.8955228    -0.7541677    -2.6536745
H           6.1830577    -2.3155982    -3.0449868
H           6.7352906    -1.9971020    -1.3924349
H           4.3841852    -0.5779264    -2.8059141
H           4.1896668    -1.9126307    -1.6905427
C           5.7638359     0.6864045    -0.4378421
H           6.6538068     0.6310472    -1.0522699
18
291_C7H9NO_16-8-9-10 (45,) energy =    -402.1440513
O           2.6570817    -1.0282853    -0.3508056
C           5.6294893     1.6287439     0.5665058
H           6.4331794     2.3256109     0.7720621
C           4.4817811     1.5408976     1.4021391
H           4.4025080     2.1849496     2.2747153
C           3.4828305     0.6562292     1.1154497
H           2.5959418     0.5656117     1.7326064
C           3.5320469    -0.2220061    -0.0365048
N           4.7155967    -0.0904549    -0.8246030
C           4.8295513    -0.9726961    -2.0035369
C           6.1980925    -1.6317234    -2.1656145
H           6.9962188    -0.9167667    -2.3919677
H           6.1532876    -2.3398601    -2.9999583
H           6.4781844    -2.1866404    -1.2638968
H           4.5756350    -0.3919050    -2.8998971
H           4.0463887    -1.7195580    -1.8721255
C           5.7024183     0.8029729    -0.5181343
H           6.5477093     0.8227816    -1.1961917
18
291_C7H9NO_16-8-9-10 (60,) energy =    -402.1452132
O           2.7848806    -1.1689025    -0.2905478
C           5.5951606     1.7013478     0.5004652
H           6.3601751     2.4472251     0.6797954
C           4.5035303     1.5167656     1.3948200
H           4.4290917     2.1372571     2.2847437
C           3.5523595     0.5708032     1.1435075
H           2.7115998     0.4061144     1.8081157
C           3.6025516    -0.2894836    -0.0227747
N           4.7135570    -0.0399393    -0.8831807
C           4.8559361    -0.8938729    -2.0766387
C           6.1357837    -1.7302863    -2.0741887
H           7.0396232    -1.1111589    -2.0710033
H           6.1655085    -2.3557826    -2.9730337
H           6.1685432    -2.3880088    -1.1994269
H           4.8198835    -0.2501754    -2.9643025
H           3.9713594    -1.5304333    -2.0826161
C           5.6592286     0.9067772    -0.6071050
H           6.4575877     0.9962366    -1.3365005
18
291_C7H9NO_16-8-9-10 (75,) energy =    -402.1463183
O           2.9581492    -1.2980590    -0.2523412
C           5.5502277     1.7893187     0.4603738
H           6.2636652     2.5885513     0.6213396
C           4.5151419     1.5085276     1.3962505
H           4.4325686     2.1092281     2.2989519
C           3.6289573     0.4948882     1.1704090
H           2.8344210     0.2556656     1.8684337
C           3.6999010    -0.3471416    -0.0079363
N           4.7375046     0.0117861    -0.9165973
C           4.8997292    -0.8169483    -2.1224793
C           6.0465590    -1.8204945    -1.9966989
H           7.0063035    -1.3189261    -1.8279411
H           6.1290539    -2.4106614    -2.9160916
H           5.8646019    -2.5072098    -1.1641382
H           5.0636628    -0.1443385    -2.9719901
H           3.9493630    -1.3318777    -2.2624802
C           5.6236789     1.0205446    -0.6648128
H           6.3799335     1.1768822    -1.4279641
18
291_C7H9NO_16-8-9-10 (90,) energy =    -402.1470451
O           3.1394258    -1.4115415    -0.2353209
C           5.4905427     1.8708757     0.4316788
H           6.1408482     2.7250176     0.5772617
C           4.5129582     1.5001546     1.3969969
H           4.4112516     2.0860631     2.3074241
C           3.7047739     0.4188494     1.1902265
H           2.9545251     0.1117132     1.9103579
C           3.8069736    -0.4047983     0.0022030
N           4.7830102     0.0414481    -0.9331423
C           4.9534987    -0.7657588    -2.1516652
C           5.9393260    -1.9179163    -1.9554030
H           6.9332396    -1.5499660    -1.6766054
H           6.0342060    -2.4921017    -2.8838070
H           5.5796657    -2.5895737    -1.1710287
H           5.2870351    -0.0934274    -2.9488215
H           3.9666755    -1.1528726    -2.4095038
C           5.5898259     1.1192871    -0.7037302
H           6.3060085     1.3411935    -1.4888336
18
291_C7H9NO_16-8-9-10 (105,) energy =    -402.1469988
O           3.2863590    -1.4713623    -0.2362780
C           5.4268879     1.9548345     0.4107487
H           6.0045732     2.8623862     0.5383550
C           4.5007741     1.5114512     1.3952613
H           4.3684039     2.0915075     2.3054753
C           3.7758471     0.3697033     1.2043330
H           3.0581204     0.0118902     1.9341668
C           3.9117759    -0.4395499     0.0103510
N           4.8648250     0.0536098    -0.9243356
C           5.0399189    -0.7240355    -2.1625942
C           5.8622070    -1.9958385    -1.9511390
H           6.8679752    -1.7623274    -1.5840736
H           5.9600396    -2.5352232    -2.8999493
H           5.3618130    -2.6473285    -1.2316709
H           5.5105746    -0.0653167    -2.8984912
H           4.0405615    -0.9855465    -2.5190226
C           5.5713204     1.2048175    -0.7211309
H           6.2553020     1.4798677    -1.5177065
18
291_C7H9NO_16-8-9-10 (120,) energy =    -402.1456497
O           3.4179758    -1.5109741    -0.2014015
C           5.3745366     2.0296221     0.3806024
H           5.8758246     2.9853874     0.4748523
C           4.5086196     1.5338987     1.3945055
H           4.3499104     2.1191986     2.2970798
C           3.8694831     0.3378121     1.2359843
H           3.1858281    -0.0566263     1.9795130
C           4.0257039    -0.4679744     0.0416593
N           4.9676830     0.0453350    -0.8942035
C           5.1349627    -0.7030729    -2.1544404
C           5.7945597    -2.0700948    -1.9674839
H           6.7940575    -1.9694399    -1.5294896
H           5.8970328    -2.5602083    -2.9423080
H           5.1810547    -2.6980756    -1.3209363
H           5.7214893    -0.0729863    -2.8289125
H           4.1385705    -0.8356033    -2.5880144
C           5.5622322     1.2666416    -0.7356132
H           6.2107080     1.5786534    -1.5479197
18
291_C7H9NO_16-8-9-10 (135,) energy =    -402.1429376
O           3.5589403    -1.5641125    -0.1299917
C           5.3134585     2.0876845     0.3463053
H           5.7325853     3.0853308     0.3989311
C           4.5227341     1.5485731     1.3993684
H           4.3431833     2.1406754     2.2935076
C           3.9781395     0.3030829     1.2826628
H           3.3415565    -0.1261092     2.0484249
C           4.1463673    -0.5053111     0.0899824
N           5.0635416     0.0295869    -0.8600854
C           5.2374821    -0.6925111    -2.1394057
C           5.7224099    -2.1358426    -1.9976681
H           6.6741057    -2.1790046    -1.4556047
H           5.8843837    -2.5532728    -2.9981415
H           4.9856598    -2.7390782    -1.4707144
H           5.9419843    -0.1077023    -2.7370635
H           4.2703763    -0.6862565    -2.6564784
C           5.5396324     1.3101838    -0.7513576
H           6.1425711     1.6538708    -1.5856187
18
291_C7H9NO_16-8-9-10 (150,) energy =    -402.1393537
O           3.7037080    -1.6373994    -0.0154679
C           5.2088589     2.1382883     0.3102334
H           5.5510883     3.1661640     0.3220847
C           4.4855616     1.5743516     1.3988386
H           4.2799539     2.1769867     2.2802186
C           4.0386681     0.2885082     1.3284366
H           3.4535049    -0.1664589     2.1199161
C           4.2341335    -0.5408031     0.1517358
N           5.1010280     0.0243761    -0.8286494
C           5.3240550    -0.6798194    -2.1163566
C           5.5977103    -2.1817908    -2.0358136
H           6.4136176    -2.3982393    -1.3372360
H           5.9086692    -2.5227466    -3.0306585
H           4.7167168    -2.7320809    -1.7171587
H           6.1698743    -0.1743868    -2.5913262
H           4.4427191    -0.5097704    -2.7491351
C           5.4742085     1.3440970    -0.7651539
H           6.0344169     1.7075579    -1.6206949
18
291_C7H9NO_16-8-9-10 (165,) energy =    -402.1362781
O           3.7895407     0.8475151    -2.0947568
C           5.4090633     0.6769803     1.6550407
H           5.9016320     0.6437465     2.6194690
C           4.3540738     1.5924636     1.3796187
H           4.0146160     2.2752607     2.1547459
C           3.7797633     1.6167701     0.1446368
H           2.9893685     2.3129111    -0.1134268
C           4.2168845     0.7588933    -0.9461250
N           5.1955990    -0.2073261    -0.5724624
C           5.8138364    -1.1468325    -1.5496057
C           5.0286622    -1.5036123    -2.8102410
H           4.0249605    -1.8674639    -2.5737907
H           5.5750449    -2.3126209    -3.3115447
H           4.9281174    -0.6591639    -3.4870818
H           6.0214678    -2.0627333    -0.9860986
H           6.7841974    -0.7233805    -1.8422311
C           5.7896307    -0.1779548     0.6651378
H           6.5791231    -0.9082425     0.8128201
18
291_C7H9NO_16-8-9-10 (180,) energy =    -402.1351041
O           3.5167225     0.6037466    -1.9680999
C           5.4869585     0.7471042     1.6203222
H           6.0298469     0.7578213     2.5578871
C           4.4028166     1.6342010     1.3666524
H           4.0996464     2.3489851     2.1278643
C           3.7490802     1.5847879     0.1728579
H           2.9187051     2.2418376    -0.0609940
C           4.1020667     0.6539014    -0.8890382
N           5.1945876    -0.2042691    -0.5709709
C           5.7408906    -1.2408318    -1.4950344
C           5.1104665    -1.4157565    -2.8740211
H           4.0588347    -1.6958664    -2.8171955
H           5.6650034    -2.2219491    -3.3717770
H           5.1827065    -0.5133025    -3.4806834
H           5.6818659    -2.1945337    -0.9557873
H           6.8066831    -1.0115690    -1.6191511
C           5.8350887    -0.1327635     0.6406247
H           6.6519416    -0.8365626     0.7684722
