19
260_C7H9NO2_18-0-1-14 (-165,) energy =    -477.3450666
C           1.0950885    -1.6307584    -0.3965540
N           2.0896052    -0.8220635    -0.9512176
C           2.2748896    -0.8736707    -2.4085389
H           1.2983133    -0.9974917    -2.8766220
H           2.9136098    -1.7153294    -2.7028572
H           2.7357208     0.0605437    -2.7367068
C           0.9759321    -1.6128662     1.1175023
H           0.9551786    -0.5925355     1.5121837
H           1.8278977    -2.1264304     1.5764020
H           0.0576036    -2.1360807     1.3870851
C           4.6388923     0.8912359     0.9766608
H           5.1667054     1.6986977     1.4646587
C           3.4051959     0.9714885     0.2530227
H           2.7993620     1.8488878     0.0752500
C           3.1213499    -0.2915405    -0.1772244
O           4.1145120    -1.1561314     0.2329617
C           5.0169815    -0.4161549     0.9344159
H           5.8584832    -0.9603563     1.3358958
O           0.3649405    -2.3034080    -1.1061018
19
260_C7H9NO2_18-0-1-14 (-150,) energy =    -477.3434876
C           1.1907764    -1.6859399    -0.3711772
N           2.0798758    -0.7512318    -0.9198265
C           2.2935371    -0.8364567    -2.3747821
H           1.3259438    -0.9473346    -2.8652318
H           2.9188902    -1.6962087    -2.6432603
H           2.7776280     0.0846050    -2.7056051
C           0.9828888    -1.6138121     1.1311398
H           0.9361989    -0.5827684     1.4925877
H           1.8098454    -2.1124938     1.6492692
H           0.0569614    -2.1398943     1.3692762
C           4.7190808     0.8560933     0.9812787
H           5.2837516     1.6409845     1.4648274
C           3.4787848     0.9858393     0.2761217
H           2.9026906     1.8855038     0.1118016
C           3.1424035    -0.2635337    -0.1553718
O           4.1068049    -1.1669808     0.2383143
C           5.0468473    -0.4644186     0.9298987
H           5.8718843    -1.0422202     1.3182959
O           0.6321651    -2.5097173    -1.0753268
19
260_C7H9NO2_18-0-1-14 (-135,) energy =    -477.3400209
C           1.2413415    -1.7188379    -0.3614053
N           2.0307970    -0.6871378    -0.9133451
C           2.2702525    -0.8052199    -2.3653629
H           1.3166848    -0.9795350    -2.8655053
H           2.9435487    -1.6368363    -2.6031192
H           2.7064469     0.1328054    -2.7153078
C           0.9156557    -1.5837921     1.1150065
H           0.8089351    -0.5408477     1.4236186
H           1.7159467    -2.0352022     1.7128129
H          -0.0063160    -2.1343155     1.3125731
C           4.7449932     0.8212658     0.9678792
H           5.3327651     1.5817497     1.4627650
C           3.4866149     0.9904639     0.3041827
H           2.9162007     1.9012599     0.1892195
C           3.1245332    -0.2378885    -0.1644317
O           4.0873599    -1.1663163     0.1704184
C           5.0556481    -0.4999206     0.8591130
H           5.8851148    -1.1004548     1.2007669
O           0.8817345    -2.6693004    -1.0315676
19
260_C7H9NO2_18-0-1-14 (-120,) energy =    -477.3352061
C           1.1150598    -1.4896966     0.1960046
N           2.4125665    -1.5801049    -0.3664586
C           3.1298166    -2.8349540    -0.0557082
H           2.4854284    -3.6807720    -0.3017193
H           3.4031759    -2.8965847     1.0038298
H           4.0294883    -2.8723527    -0.6728233
C           0.2066385    -0.4406238    -0.4164488
H          -0.3834312     0.0395795     0.3680788
H          -0.4920946    -0.9559257    -1.0870391
H           0.7469471     0.3100063    -0.9955059
C           4.3263401     1.4614871     0.1511376
H           4.6845039     2.3672242     0.6203527
C           3.3261653     0.5632408     0.6499451
H           2.7812964     0.6318819     1.5810181
C           3.2098411    -0.4339583    -0.2767287
O           4.0771032    -0.2143876    -1.3153796
C           4.7544421     0.9357072    -1.0281969
H           5.5007597     1.2301675    -1.7499956
O           0.7579924    -2.2243836     1.0978892
19
260_C7H9NO2_18-0-1-14 (-105,) energy =    -477.3298828
C           1.1055114    -1.4376537     0.2926507
N           2.3562140    -1.5918501    -0.3889205
C           3.0492350    -2.8634008    -0.0761883
H           2.3732552    -3.6956548    -0.2854148
H           3.3626078    -2.9140647     0.9726159
H           3.9219552    -2.9403961    -0.7276047
C           0.1201693    -0.5271430    -0.4079117
H          -0.5978221    -0.1303221     0.3125939
H          -0.4256420    -1.1180343    -1.1545069
H           0.6218460     0.2866078    -0.9370851
C           4.3635583     1.3840877     0.1668063
H           4.7513847     2.2711685     0.6480168
C           3.3453475     0.5035490     0.6617637
H           2.8140349     0.5670770     1.6008441
C           3.1931032    -0.4736082    -0.2814228
O           4.0523413    -0.2575801    -1.3268807
C           4.7644106     0.8686980    -1.0263568
H           5.5112820     1.1552028    -1.7507799
O           0.8740869    -1.9936937     1.3468935
19
260_C7H9NO2_18-0-1-14 (-90,) energy =    -477.3244475
C           1.1621471    -1.3463003     0.3144411
N           2.3828811    -1.5402616    -0.4412084
C           3.0386203    -2.8385311    -0.1493977
H           2.3423301    -3.6477664    -0.3859377
H           3.3447861    -2.9209475     0.8997521
H           3.9124615    -2.9277314    -0.7977369
C           0.0858022    -0.6174499    -0.4535927
H          -0.7036077    -0.2852188     0.2232155
H          -0.3398416    -1.2957478    -1.2034509
H           0.5095613     0.2329271    -0.9965304
C           4.4551298     1.3785246     0.1844780
H           4.8534784     2.2538532     0.6785721
C           3.4077749     0.5186700     0.6560216
H           2.8617211     0.5882018     1.5855773
C           3.2522948    -0.4500212    -0.2960102
O           4.1343747    -0.2470758    -1.3243977
C           4.8670560     0.8617777    -1.0037384
H           5.6341495     1.1341291    -1.7122655
O           1.0493929    -1.7120573     1.4640660
19
260_C7H9NO2_18-0-1-14 (-75,) energy =    -477.3219413
C           1.0201569    -1.0778746     0.3501342
N           2.4049321    -1.4892062     0.4272258
C           2.7918243    -2.6968765    -0.3217857
H           2.1248182    -3.5206457    -0.0525087
H           3.8047029    -2.9679893    -0.0130433
H           2.7843720    -2.5685180    -1.4126247
C           0.2473034    -1.4548304    -0.9015428
H          -0.7381163    -0.9892311    -0.8534894
H           0.1200938    -2.5404891    -0.9783675
H           0.7772732    -1.1219626    -1.8010728
C           4.7553106     1.2783569     0.4688325
H           5.4242568     2.0313528     0.8617857
C           4.0121477     0.3031052     1.2118140
H           3.9863372     0.1598069     2.2820748
C           3.3129404    -0.4295965     0.3019316
O           3.5746437     0.0350386    -0.9742524
C           4.4582045     1.0656289    -0.8419760
H           4.7799698     1.5284210    -1.7627887
O           0.5012716    -0.5156301     1.2869819
19
260_C7H9NO2_18-0-1-14 (-60,) energy =    -477.3274822
C           1.1397843    -1.1965347     0.3103115
N           2.4949086    -1.5537801     0.0536076
C           2.7780491    -2.6416164    -0.8906529
H           2.1318479    -3.4904368    -0.6603954
H           3.8143210    -2.9543681    -0.7511489
H           2.6457040    -2.3581564    -1.9430430
C           0.0966540    -1.6490014    -0.6972510
H          -0.8445288    -1.1572813    -0.4472961
H          -0.0575694    -2.7330668    -0.6443259
H           0.3850742    -1.4056329    -1.7254508
C           4.6883131     1.3270120     0.2786793
H           5.1204537     2.2441601     0.6549520
C           3.6050765     0.5846080     0.8593817
H           3.0440981     0.8027917     1.7539949
C           3.4158603    -0.4912820     0.0409729
O           4.3061406    -0.4771998    -0.9928084
C           5.0864303     0.6450167    -0.8256906
H           5.8647318     0.7790680    -1.5600474
O           0.8325908    -0.6497421     1.3500743
19
260_C7H9NO2_18-0-1-14 (-45,) energy =    -477.3336626
C           1.0598057    -1.0201995     0.3644848
N           2.3976787    -1.3527463     0.0688290
C           2.7019803    -2.4155176    -0.8960785
H           2.0294350    -3.2568614    -0.7270944
H           3.7245778    -2.7550225    -0.7256911
H           2.6199828    -2.0876980    -1.9404719
C          -0.0197341    -1.6411780    -0.5075580
H          -0.9576481    -1.1357918    -0.2732961
H          -0.1424603    -2.7075326    -0.2833237
H           0.1958997    -1.5474235    -1.5769337
C           4.6848592     1.4189811     0.5682653
H           5.1131393     2.3175035     0.9910702
C           3.4941638     0.7469793     1.0069273
H           2.8344991     1.0087144     1.8172258
C           3.3550358    -0.3293432     0.1774830
O           4.3735025    -0.3806962    -0.7274712
C           5.1849162     0.7020807    -0.4700377
H           6.0530692     0.7870116    -1.1039606
O           0.7803549    -0.3572130     1.3473457
19
260_C7H9NO2_18-0-1-14 (-30,) energy =    -477.3386101
C           1.0421175    -0.9937314     0.3182094
N           2.3653730    -1.2808802    -0.0336684
C           2.6927475    -2.3467598    -0.9864480
H           2.0053463    -3.1801765    -0.8470234
H           3.7050865    -2.6990357    -0.7845695
H           2.6485694    -2.0090296    -2.0296075
C          -0.0517178    -1.7700545    -0.3995528
H          -1.0010679    -1.3010524    -0.1380052
H          -0.0832561    -2.8139980    -0.0648513
H           0.0710730    -1.7700687    -1.4875718
C           4.7052624     1.4062403     0.6553274
H           5.1323839     2.2906290     1.1079857
C           3.4516135     0.7922689     0.9913184
H           2.7355635     1.0942260     1.7357770
C           3.3386165    -0.2874423     0.1606602
O           4.4309151    -0.3903780    -0.6502317
C           5.2620250     0.6591861    -0.3313258
H           6.1823083     0.7040671    -0.8915919
O           0.7788746    -0.2180395     1.2234610
19
260_C7H9NO2_18-0-1-14 (-15,) energy =    -477.3414898
C           1.0124611    -0.9653704     0.2672422
N           2.3162979    -1.2081423    -0.1571455
C           2.6592133    -2.2879301    -1.0878801
H           1.9362236    -3.0956068    -0.9925652
H           3.6467133    -2.6776227    -0.8365251
H           2.6811150    -1.9418893    -2.1285142
C          -0.0812106    -1.8656784    -0.2894352
H          -1.0325472    -1.4530323     0.0480776
H           0.0054583    -2.8897812     0.0930476
H          -0.0744038    -1.9134010    -1.3835239
C           4.7252211     1.3720459     0.6896585
H           5.1601928     2.2419910     1.1623599
C           3.4144726     0.8361332     0.9254942
H           2.6567791     1.1953297     1.5988988
C           3.3120460    -0.2557330     0.1076403
O           4.4617566    -0.4312576    -0.6070414
C           5.3196761     0.5776964    -0.2359232
H           6.2826379     0.5646559    -0.7211148
O           0.7568126    -0.0944928     1.0861671
19
260_C7H9NO2_18-0-1-14 (0,) energy =    -477.3422854
C           1.0057780    -0.9227667     0.2506645
N           2.2804364    -1.0935473    -0.2769221
C           2.6524209    -2.1848193    -1.1821333
H           1.7907725    -2.8213166    -1.3633470
H           3.4537791    -2.7887469    -0.7456397
H           3.0064604    -1.7866436    -2.1378891
C          -0.0630714    -1.9359413    -0.1368248
H          -0.9773491    -1.6363957     0.3763308
H           0.1972352    -2.9544679     0.1723324
H          -0.2525978    -1.9473098    -1.2161358
C           4.7432698     1.3811776     0.7181004
H           5.1828734     2.2434376     1.2004905
C           3.3836313     0.9366864     0.8364451
H           2.5863717     1.3722958     1.4114291
C           3.2944772    -0.1830210     0.0544458
O           4.4965169    -0.4557005    -0.5331581
C           5.3749013     0.5152568    -0.1140395
H           6.3772530     0.4277848    -0.5020465
O           0.7440735     0.0070074     1.0011960
19
260_C7H9NO2_18-0-1-14 (15,) energy =    -477.3414885
C           1.0156282    -0.9254812     0.2185256
N           2.2508240    -1.0103684    -0.4182804
C           2.6157487    -2.1287742    -1.2937936
H           1.7196682    -2.5376853    -1.7566626
H           3.1374204    -2.9247338    -0.7482689
H           3.2758817    -1.7653203    -2.0823437
C           0.0307728    -2.0616320    -0.0177231
H          -0.8156584    -1.8899627     0.6480666
H           0.4621790    -3.0464627     0.1904531
H          -0.3382506    -2.0670486    -1.0504179
C           4.7440097     1.3727414     0.7149736
H           5.1812496     2.2322170     1.2044340
C           3.3561361     1.0058603     0.7083328
H           2.5292802     1.5107666     1.1752171
C           3.2835853    -0.1427864    -0.0312442
O           4.5206060    -0.5040440    -0.4812494
C           5.4058790     0.4393294    -0.0142183
H           6.4346829     0.2854063    -0.2983637
O           0.7124141     0.0400326     0.9044097
19
260_C7H9NO2_18-0-1-14 (30,) energy =    -477.3386100
C           1.0108327    -0.8850145     0.1547247
N           2.2232188    -0.9224254    -0.5421516
C           2.5848990    -2.0593166    -1.3953764
H           1.6935073    -2.4319044    -1.8987306
H           3.0539371    -2.8768923    -0.8333864
H           3.2902912    -1.7182297    -2.1540380
C           0.1213061    -2.1159418     0.0664347
H          -0.6768675    -1.9871715     0.7985594
H           0.6608479    -3.0465145     0.2707510
H          -0.3368544    -2.2039696    -0.9261326
C           4.7584005     1.3292233     0.7510870
H           5.2036433     2.1719307     1.2620439
C           3.3563420     1.0454689     0.6280451
H           2.5223312     1.6094686     1.0081837
C           3.2793117    -0.1126874    -0.0940244
O           4.5243903    -0.5550363    -0.4332331
C           5.4223961     0.3452165     0.0935808
H           6.4601728     0.1287633    -0.1038736
O           0.6412688     0.1231612     0.7354929
19
260_C7H9NO2_18-0-1-14 (45,) energy =    -477.3336627
C           0.9799813    -0.8522489     0.1200559
N           2.1674930    -0.8512021    -0.6399753
C           2.5121049    -2.0044642    -1.4792413
H           1.6173593    -2.3520079    -1.9963231
H           2.9513376    -2.8356769    -0.9125828
H           3.2372329    -1.6829258    -2.2281170
C           0.2090175    -2.1599800     0.2035055
H          -0.5562683    -2.0379237     0.9712383
H           0.8500357    -3.0127178     0.4500314
H          -0.2933573    -2.3824919    -0.7454831
C           4.7571727     1.2507890     0.7879646
H           5.2198653     2.0741334     1.3147792
C           3.3521622     1.0559548     0.5647779
H           2.5300491     1.6811026     0.8706601
C           3.2519565    -0.1097794    -0.1399854
O           4.4849417    -0.6398663    -0.3802258
C           5.4005165     0.2126727     0.1959245
H           6.4336533    -0.0707863     0.0731848
O           0.5350548     0.1794260     0.5905811
19
260_C7H9NO2_18-0-1-14 (60,) energy =    -477.3274826
C           0.9508078    -0.8182712     0.0578584
N           2.1202754    -0.7607159    -0.7538851
C           2.4519040    -1.9118336    -1.6021462
H           1.5545894    -2.2315118    -2.1346568
H           2.8694208    -2.7625975    -1.0478977
H           3.1903107    -1.5916814    -2.3394198
C           0.3526968    -2.1893602     0.3250375
H          -0.4115325    -2.0752761     1.0951386
H           1.1076664    -2.9128880     0.6504578
H          -0.1257273    -2.5916476    -0.5756373
C           4.7266888     1.2005191     0.8331025
H           5.1981983     2.0096127     1.3739649
C           3.3381581     1.0944308     0.4832342
H           2.5372050     1.7855387     0.6916698
C           3.2182752    -0.0863506    -0.1908998
O           4.4267402    -0.7108747    -0.2956757
C           5.3448967     0.0994684     0.3342923
H           6.3639188    -0.2526248     0.3096239
O           0.4004107     0.2014263     0.4209024
19
260_C7H9NO2_18-0-1-14 (75,) energy =    -477.3219412
C           0.9350691    -0.8974707     0.0871257
N           1.9923002    -0.5812572    -0.8483012
C           2.2810425    -1.5721967    -1.8989290
H           1.3561852    -1.8228489    -2.4260130
H           2.7462447    -2.4953851    -1.5277409
H           2.9623344    -1.1063660    -2.6155815
C           0.6527329    -2.3656524     0.3532794
H          -0.0907589    -2.4367287     1.1484618
H           1.5685841    -2.8911060     0.6464316
H           0.2604940    -2.8634650    -0.5406273
C           4.8177131     1.1318399     0.6575707
H           5.4600163     1.9448522     0.9663777
C           3.5942160     1.2244714    -0.0839745
H           3.1040012     2.1143559    -0.4506572
C           3.1373851    -0.0483175    -0.2419401
O           4.0073798    -0.9368029     0.3636208
C           5.0202404    -0.1929094     0.8937322
H           5.8003885    -0.7496949     1.3906870
O           0.2710734    -0.0115718     0.5742961
19
260_C7H9NO2_18-0-1-14 (90,) energy =    -477.3244476
C           0.9359389    -1.0067487    -0.2511937
N           2.2455906    -1.3942404    -0.7343794
C           2.3261301    -1.4217813    -2.2154364
H           1.5832103    -2.1274627    -2.5971500
H           3.3208217    -1.7766893    -2.4920680
H           2.1475670    -0.4351312    -2.6580029
C           0.5177988    -1.7303486     1.0062592
H          -0.3454929    -1.2377319     1.4575528
H           1.3484289    -1.7774364     1.7171315
H           0.2547208    -2.7647880     0.7527363
C           4.6328213     0.8254340     0.8719205
H           5.0317611     1.6976744     1.3709879
C           3.2859580     0.6256840     0.4194876
H           2.4573657     1.3161084     0.4813026
C           3.2558033    -0.6159777    -0.1517780
O           4.4945082    -1.1971206    -0.0837634
C           5.3204922    -0.2961126     0.5287318
H           6.3505321    -0.6019972     0.6290102
O           0.2707181    -0.1558971    -0.8004462
19
260_C7H9NO2_18-0-1-14 (105,) energy =    -477.3298828
C           0.8691850    -1.0757701    -0.3042438
N           2.1865336    -1.3743638    -0.7817526
C           2.2986839    -1.3629004    -2.2589784
H           1.5563370    -2.0475251    -2.6756108
H           3.2973751    -1.7156841    -2.5236914
H           2.1349249    -0.3630133    -2.6763165
C           0.5552639    -1.6469030     1.0617622
H          -0.2449700    -1.0714087     1.5313777
H           1.4376507    -1.6726819     1.7056760
H           0.2114531    -2.6811660     0.9330709
C           4.5619594     0.7852347     0.9176113
H           4.9600930     1.6474780     1.4342458
C           3.2250527     0.6072684     0.4296691
H           2.4036739     1.3081386     0.4778348
C           3.1917011    -0.6287072    -0.1524558
O           4.4211626    -1.2268307    -0.0595346
C           5.2424458    -0.3434645     0.5815611
H           6.2653058    -0.6641792     0.7064247
O           0.0845583    -0.4131282    -0.9518790
19
260_C7H9NO2_18-0-1-14 (120,) energy =    -477.3352061
C           0.9015371    -1.1777686    -0.3315046
N           2.2300137    -1.3340435    -0.7992185
C           2.3689484    -1.3111444    -2.2709072
H           1.6649137    -2.0240385    -2.7036675
H           3.3886239    -1.6114166    -2.5193737
H           2.1630907    -0.3172558    -2.6843747
C           0.6587450    -1.5980117     1.1056229
H          -0.0323265    -0.8985814     1.5825727
H           1.5766380    -1.6795747     1.6900111
H           0.1733394    -2.5816272     1.0873157
C           4.5580175     0.7890387     1.0048288
H           4.9404027     1.6389453     1.5527727
C           3.2301885     0.6131270     0.4930255
H           2.4016214     1.3047595     0.5531074
C           3.2157901    -0.6052173    -0.1250991
O           4.4505550    -1.1935620    -0.0338799
C           5.2538561    -0.3231695     0.6451853
H           6.2775198    -0.6386742     0.7765634
O           0.0176985    -0.7516403    -1.0511608
19
260_C7H9NO2_18-0-1-14 (135,) energy =    -477.3397238
C           0.9164673    -1.2627947    -0.3156387
N           2.2369231    -1.2642440    -0.7940544
C           2.3839073    -1.2371785    -2.2611549
H           1.7197431    -1.9851669    -2.6957385
H           3.4201448    -1.4785227    -2.5049961
H           2.1247174    -0.2558943    -2.6755832
C           0.7291305    -1.5140067     1.1711387
H           0.3309000    -0.6155695     1.6537076
H           1.6452272    -1.8177924     1.6802041
H          -0.0269275    -2.2981762     1.2768365
C           4.5593356     0.7792542     1.1035862
H           4.9427674     1.6090747     1.6807720
C           3.2364349     0.6301466     0.5722735
H           2.4132300     1.3266232     0.6475178
C           3.2168802    -0.5692619    -0.0810934
O           4.4472785    -1.1700171     0.0047502
C           5.2494396    -0.3283735     0.7186860
H           6.2682711    -0.6575622     0.8542534
O          -0.0263237    -1.0758823    -1.0657914
19
260_C7H9NO2_18-0-1-14 (150,) energy =    -477.3428285
C           0.9690047    -1.3938351    -0.3786932
N           2.2612046    -1.2157845    -0.8783008
C           2.4111392    -1.1930760    -2.3418151
H           1.7800027    -1.9712615    -2.7714222
H           3.4577099    -1.3862129    -2.5851920
H           2.1087869    -0.2263700    -2.7622515
C           0.8224755    -1.5266615     1.1284536
H           0.5647944    -0.5582512     1.5709346
H           1.7264776    -1.8970019     1.6168558
H          -0.0105127    -2.2082252     1.3158442
C           4.6083559     0.7403334     1.0781250
H           5.0088749     1.5581054     1.6608656
C           3.2968822     0.6407230     0.5093383
H           2.5004807     1.3700147     0.5577976
C           3.2444505    -0.5621592    -0.1347888
O           4.4487550    -1.2116461    -0.0096084
C           5.2620513    -0.3993025     0.7228570
H           6.2608488    -0.7702233     0.8955470
O           0.0088486    -1.4437007    -1.1307312
19
260_C7H9NO2_18-0-1-14 (165,) energy =    -477.3444445
C           0.9427593    -1.4810718    -0.4090982
N           2.1697353    -1.0883070    -0.9410449
C           2.3220077    -1.0493949    -2.4007876
H           1.6043165    -1.7442261    -2.8362005
H           3.3405831    -1.3470023    -2.6622051
H           2.1274512    -0.0446585    -2.7953541
C           0.8521218    -1.5627679     1.1062768
H           0.7099744    -0.5665838     1.5391475
H           1.7510904    -1.9948779     1.5547541
H          -0.0181784    -2.1738967     1.3507838
C           4.5879854     0.7533344     1.0377188
H           5.0372196     1.5689846     1.5869762
C           3.3106445     0.7420708     0.3896614
H           2.5898676     1.5461503     0.3376542
C           3.1671614    -0.4958222    -0.1671090
O           4.2879913    -1.2533313     0.0873848
C           5.1338203    -0.4743094     0.8167585
H           6.0699379    -0.9337996     1.0957895
O          -0.0052110    -1.7420823    -1.1330364
19
260_C7H9NO2_18-0-1-14 (180,) energy =    -477.3452308
C           0.9900063    -1.5827027    -0.4172202
N           2.1078924    -0.9523838    -0.9651697
C           2.2711120    -0.9182449    -2.4230424
H           1.4047940    -1.4129624    -2.8615714
H           3.1861484    -1.4437789    -2.7164379
H           2.3253958     0.1165410    -2.7775379
C           0.9277035    -1.6347174     1.1000465
H           0.9367169    -0.6296393     1.5340570
H           1.7848301    -2.1773334     1.5120840
H           0.0047877    -2.1445941     1.3783661
C           4.6098645     0.8035080     0.9856176
H           5.1211531     1.6195597     1.4769420
C           3.3819259     0.8647825     0.2506353
H           2.7663602     1.7338101     0.0646443
C           3.1201300    -0.4034172    -0.1792658
O           4.1222403    -1.2519479     0.2399218
C           5.0083874    -0.4979221     0.9468704
H           5.8549555    -1.0290627     1.3550894
O           0.1150875    -2.0567277    -1.1241446
