19
260_C7H9NO2_0-1-14-12 (-165,) energy =    -477.3346766
C           1.3467933    -1.6277340     0.5945379
N           2.2217626    -1.0630606    -0.3427969
C           2.0287758    -1.1752435    -1.7883510
H           1.2945887    -1.9433786    -2.0156316
H           2.9765828    -1.4441411    -2.2655507
H           1.6821905    -0.2250722    -2.2151342
C           0.2667395    -2.5599293     0.0550146
H          -0.2669268    -2.9497063     0.9223013
H           0.6837150    -3.3999209    -0.5117997
H          -0.4483144    -2.0364563    -0.5897249
C           5.0958420     1.0861336     0.1184478
H           5.8818166     1.7827885    -0.1377543
C           4.0641454     0.5940221    -0.7477708
H           3.9122248     0.8476222    -1.7859379
C           3.2977940    -0.2437799     0.0220713
O           3.7928160    -0.3158863     1.2817071
C           4.8857236     0.5092803     1.3294106
H           5.3701654     0.5726575     2.2908812
O           1.4348126    -1.4007128     1.7872049
19
260_C7H9NO2_0-1-14-12 (-150,) energy =    -477.3357125
C           1.2995993    -1.5555589     0.5548503
N           2.2419920    -1.0921009    -0.3720943
C           2.0938974    -1.2687704    -1.8173734
H           1.5132177    -2.1641813    -2.0336003
H           3.0844746    -1.3817834    -2.2650240
H           1.5956290    -0.4089169    -2.2854415
C           0.2315254    -2.5056238     0.0277776
H          -0.3777360    -2.8010021     0.8824744
H           0.6660470    -3.4034004    -0.4266566
H          -0.4140881    -2.0287410    -0.7183222
C           5.0471637     1.1264946     0.1821467
H           5.7847680     1.8894897    -0.0238821
C           3.9658508     0.7183012    -0.6673682
H           3.7128997     1.1149257    -1.6398282
C           3.2930946    -0.2543582     0.0222961
O           3.8954591    -0.4920581     1.2163110
C           4.9539338     0.3698950     1.3067716
H           5.5087058     0.3228910     2.2306517
O           1.3317502    -1.2288492     1.7271651
19
260_C7H9NO2_0-1-14-12 (-135,) energy =    -477.3367376
C           1.2862792    -1.4778366     0.5452752
N           2.2614690    -1.1007051    -0.3836990
C           2.1589480    -1.3975706    -1.8147367
H           1.7271656    -2.3876318    -1.9715153
H           3.1620844    -1.3892847    -2.2449833
H           1.5439436    -0.6606607    -2.3489656
C           0.1999376    -2.4192163     0.0452470
H          -0.4833321    -2.5936593     0.8769226
H           0.6166119    -3.3800458    -0.2794555
H          -0.3603385    -1.9966640    -0.7962263
C           5.0037950     1.1855343     0.2248962
H           5.6807981     2.0144426     0.0724243
C           3.8636116     0.8403649    -0.5736375
H           3.4933240     1.3562828    -1.4482451
C           3.3077645    -0.2595713     0.0159967
O           4.0378217    -0.6332242     1.1044921
C           5.0536478     0.2700733     1.2291502
H           5.6978161     0.1289678     2.0831104
O           1.3110390    -1.0812098     1.6965161
19
260_C7H9NO2_0-1-14-12 (-120,) energy =    -477.3378874
C           1.0703301    -1.2534167     0.3247217
N           2.0623148    -0.9359250    -0.6064521
C           2.1898587    -1.6189192    -1.8998663
H           2.6387795    -2.6168130    -1.8009951
H           2.8299933    -1.0154630    -2.5452983
H           1.2144005    -1.7160115    -2.3814907
C          -0.0064455    -2.2245770    -0.1338914
H          -0.6725133    -2.3989975     0.7116505
H           0.4162825    -3.1800283    -0.4643684
H          -0.5898198    -1.8138158    -0.9663376
C           4.8648363     1.2225015     0.1891995
H           5.5202023     2.0817581     0.1589950
C           3.6449356     1.0344732    -0.5387899
H           3.1767037     1.7199871    -1.2310404
C           3.1571863    -0.1814616    -0.1626485
O           4.0083143    -0.7736940     0.7338909
C           5.0278665     0.1032302     0.9467259
H           5.7707641    -0.2087711     1.6648870
O           1.0623104    -0.7564955     1.4371618
19
260_C7H9NO2_0-1-14-12 (-105,) energy =    -477.3384885
C           1.2605839    -1.3234223     0.5654698
N           2.2152242    -0.9961329    -0.4008166
C           2.3416682    -1.7101751    -1.6770167
H           1.3597396    -1.8715856    -2.1275564
H           2.8448416    -2.6799669    -1.5639021
H           2.9306422    -1.0925498    -2.3576759
C           0.1946927    -2.3268559     0.1531946
H          -0.4451295    -2.5007351     1.0188805
H           0.6303671    -3.2785254    -0.1710647
H          -0.4186546    -1.9442699    -0.6711493
C           4.8414261     1.3863987     0.3595213
H           5.3818811     2.3222842     0.3880410
C           3.5639749     1.1385199    -0.2404944
H           2.9273550     1.8433261    -0.7562014
C           3.2808770    -0.1739398    -0.0121933
O           4.3088292    -0.7656232     0.6786800
C           5.2395907     0.2026164     0.9014364
H           6.1123669    -0.1058096     1.4566938
O           1.2737037    -0.8104576     1.6704772
19
260_C7H9NO2_0-1-14-12 (-90,) energy =    -477.3386449
C           1.2338668    -1.2689760     0.5353843
N           2.2359674    -1.0112473    -0.4045014
C           2.4041944    -1.7891479    -1.6372034
H           1.4353196    -2.0048795    -2.0921703
H           2.9337513    -2.7350967    -1.4628632
H           2.9852530    -1.1923440    -2.3436647
C           0.1595934    -2.2652883     0.1259056
H          -0.5306622    -2.3652285     0.9640973
H           0.5824674    -3.2478985    -0.1117081
H          -0.3962199    -1.9206848    -0.7539254
C           4.8020459     1.4169277     0.4144507
H           5.2952217     2.3734592     0.5175753
C           3.4894028     1.1682424    -0.1036875
H           2.7746222     1.8905626    -0.4709391
C           3.2957823    -0.1770175    -0.0281667
O           4.4100044    -0.7869352     0.4949408
C           5.3102455     0.2013621     0.7568378
H           6.2504927    -0.1212818     1.1775502
O           1.2126004    -0.7060526     1.6154694
19
260_C7H9NO2_0-1-14-12 (-75,) energy =    -477.3387435
C           1.1913963    -1.2044513     0.4960648
N           2.2503805    -1.0204543    -0.3982698
C           2.4647993    -1.8669875    -1.5773878
H           1.5153527    -2.0915985    -2.0672794
H           2.9679613    -2.8094315    -1.3262569
H           3.0902359    -1.3195608    -2.2859464
C           0.1331884    -2.2194967     0.0898301
H          -0.5970504    -2.2703561     0.8979828
H           0.5595767    -3.2152802    -0.0747140
H          -0.3785472    -1.9199371    -0.8323436
C           4.7775446     1.4328407     0.4647320
H           5.2381981     2.3951034     0.6400124
C           3.4302900     1.1795451     0.0461601
H           2.6525375     1.9014204    -0.1554497
C           3.3022578    -0.1732085    -0.0310776
O           4.4872976    -0.7820826     0.3022610
C           5.3709211     0.2153140     0.5954470
H           6.3645999    -0.1058271     0.8681334
O           1.1069721    -0.5678221     1.5312553
19
260_C7H9NO2_0-1-14-12 (-60,) energy =    -477.3391928
C           1.1384083    -1.1448935     0.4293303
N           2.2548763    -1.0300876    -0.4038725
C           2.5203853    -1.9494609    -1.5157393
H           1.5951862    -2.1822091    -2.0458397
H           2.9854362    -2.8847972    -1.1805008
H           3.1994900    -1.4597318    -2.2164106
C           0.1095763    -2.1959792     0.0395300
H          -0.6603256    -2.1981824     0.8116543
H           0.5474970    -3.1971832    -0.0380404
H          -0.3580756    -1.9614536    -0.9241191
C           4.7560369     1.4250522     0.5247046
H           5.1946121     2.3798267     0.7797357
C           3.3808287     1.1614614     0.2155567
H           2.5574845     1.8592427     0.2025009
C           3.2986085    -0.1754779    -0.0295926
O           4.5328686    -0.7600782     0.0910967
C           5.4088887     0.2365132     0.4236567
H           6.4379307    -0.0670437     0.5385112
O           0.9805419    -0.4215519     1.3976201
19
260_C7H9NO2_0-1-14-12 (-45,) energy =    -477.3401923
C           1.1000976    -1.0528906     0.3812346
N           2.2640440    -1.0254616    -0.3886643
C           2.5530391    -2.0177509    -1.4290986
H           1.6402710    -2.2700341    -1.9702353
H           2.9916712    -2.9352140    -1.0179835
H           3.2626597    -1.5868275    -2.1371013
C           0.0759256    -2.1213782     0.0288577
H          -0.7221172    -2.0591691     0.7693029
H           0.5025757    -3.1302206     0.0392102
H          -0.3547770    -1.9513068    -0.9652017
C           4.7705714     1.4135401     0.5680179
H           5.2051759     2.3495137     0.8908556
C           3.3760420     1.1308815     0.3854353
H           2.5356961     1.7837497     0.5578992
C           3.3093402    -0.1706547    -0.0157798
O           4.5636083    -0.7089513    -0.1110240
C           5.4453336     0.2787970     0.2466298
H           6.4882045     0.0058889     0.2074967
O           0.8979342    -0.2422881     1.2707754
19
260_C7H9NO2_0-1-14-12 (-30,) energy =    -477.3413226
C           1.0589621    -0.9942134     0.3128796
N           2.2655128    -1.0425130    -0.3817707
C           2.5844787    -2.0899305    -1.3569348
H           1.6734328    -2.4249476    -1.8510075
H           3.0783975    -2.9505683    -0.8898960
H           3.2556674    -1.6797635    -2.1131104
C           0.0285335    -2.0639120    -0.0183377
H          -0.8007559    -1.9332440     0.6775525
H           0.4281078    -3.0788104     0.0817779
H          -0.3536506    -1.9530041    -1.0402064
C           4.7610846     1.3972594     0.6081753
H           5.1931001     2.3103917     0.9940546
C           3.3648449     1.0744242     0.5325431
H           2.5250065     1.6649123     0.8565364
C           3.3043252    -0.1765375    -0.0129798
O           4.5586476    -0.6421650    -0.2898544
C           5.4398422     0.3383793     0.0968233
H           6.4816287     0.1145643    -0.0696293
O           0.8254723    -0.1204063     1.1343229
19
260_C7H9NO2_0-1-14-12 (-15,) energy =    -477.3420545
C           1.0465373    -0.9503377     0.2671144
N           2.2870157    -1.0636642    -0.3517533
C           2.6344547    -2.1467091    -1.2767220
H           1.7273126    -2.6135981    -1.6529882
H           3.2552275    -2.9073862    -0.7895384
H           3.1931576    -1.7403472    -2.1225220
C          -0.0049247    -1.9983962    -0.0702930
H          -0.8757387    -1.7801530     0.5486113
H           0.3367972    -3.0178389     0.1395442
H          -0.3054634    -1.9532060    -1.1236372
C           4.7719090     1.3880304     0.6427128
H           5.2071895     2.2759129     1.0804594
C           3.3870140     1.0118947     0.6699080
H           2.5629416     1.5312422     1.1258800
C           3.3163928    -0.1779744    -0.0013315
O           4.5523603    -0.5552139    -0.4425978
C           5.4342556     0.4186672    -0.0379720
H           6.4618561     0.2562627    -0.3218721
O           0.7996460    -0.0392379     1.0444934
19
260_C7H9NO2_0-1-14-12 (0,) energy =    -477.3422853
C           1.0272123    -0.9176407     0.2394926
N           2.2997219    -1.0851660    -0.2942323
C           2.6718292    -2.1781084    -1.1974275
H           1.8094012    -2.8131572    -1.3800337
H           3.4710730    -2.7831873    -0.7585674
H           3.0287548    -1.7814334    -2.1526736
C          -0.0420691    -1.9305905    -0.1473604
H          -0.9583456    -1.6254483     0.3588703
H           0.2146759    -2.9471275     0.1716039
H          -0.2257801    -1.9505807    -1.2274337
C           4.7620379     1.3921873     0.6956669
H           5.2016842     2.2551903     1.1766939
C           3.4029397     0.9465977     0.8161644
H           2.6058401     1.3827485     1.3909539
C           3.3137136    -0.1739553     0.0353810
O           4.5154129    -0.4466160    -0.5528386
C           5.3934897     0.5256133    -0.1359228
H           6.3955037     0.4383841    -0.5248493
O           0.7676889     0.0090810     0.9945637
19
260_C7H9NO2_0-1-14-12 (15,) energy =    -477.3420546
C           1.0175172    -0.9501007     0.1742687
N           2.3137718    -1.1831291    -0.2729794
C           2.6781039    -2.2955715    -1.1555876
H           1.9041083    -3.0586943    -1.1233759
H           3.6174512    -2.7383078    -0.8175185
H           2.8101206    -1.9603986    -2.1907461
C          -0.0625840    -1.9306085    -0.2614323
H          -1.0068759    -1.5525578     0.1314826
H           0.1072800    -2.9345708     0.1449231
H          -0.1368422    -2.0158357    -1.3510508
C           4.7805224     1.3001290     0.6877026
H           5.2377681     2.1346062     1.2015119
C           3.4552320     0.7898143     0.8958828
H           2.7023851     1.1448840     1.5769674
C           3.3232843    -0.2560395     0.0240406
O           4.4698175    -0.4282447    -0.6973904
C           5.3541208     0.5364722    -0.2764117
H           6.3172727     0.5215354    -0.7612348
O           0.7511092    -0.0023321     0.8996239
19
260_C7H9NO2_0-1-14-12 (30,) energy =    -477.3413227
C           0.9977364    -0.9217051     0.1192941
N           2.3132746    -1.2088173    -0.2379978
C           2.6825505    -2.3604078    -1.0670062
H           1.9905295    -3.1821706    -0.8876529
H           3.6861942    -2.6890671    -0.7928375
H           2.6815263    -2.1153487    -2.1359998
C          -0.0724433    -1.8989971    -0.3447426
H          -1.0358654    -1.4742461    -0.0610997
H           0.0345664    -2.8757068     0.1422113
H          -0.0534032    -2.0606732    -1.4279126
C           4.7874287     1.2698814     0.7082172
H           5.2694284     2.0670036     1.2574221
C           3.5079947     0.6849828     0.9917063
H           2.8136332     0.9452560     1.7721479
C           3.3180001    -0.2695858     0.0331199
O           4.3905851    -0.3237623    -0.8114991
C           5.2831102     0.6276255    -0.3804591
H           6.1947321     0.6981061    -0.9523798
O           0.7146056     0.0564094     0.7945265
19
260_C7H9NO2_0-1-14-12 (45,) energy =    -477.3401924
C           0.9896861    -0.8709362     0.0356262
N           2.3194139    -1.2093052    -0.2206717
C           2.7044725    -2.4074645    -0.9735369
H           2.0509924    -3.2405277    -0.7117449
H           3.7270211    -2.6769682    -0.7045957
H           2.6649640    -2.2473978    -2.0579561
C          -0.0664698    -1.8642179    -0.4255816
H          -1.0398205    -1.4140049    -0.2283526
H           0.0016428    -2.8077664     0.1291037
H           0.0156130    -2.0979860    -1.4925818
C           4.8162208     1.2427309     0.7280825
H           5.3323720     1.9926394     1.3115004
C           3.5926596     0.5775307     1.0721529
H           2.9764620     0.7251546     1.9443131
C           3.3250358    -0.2687080     0.0369477
O           4.3039570    -0.1873480    -0.9154971
C           5.2104968     0.7411639    -0.4715901
H           6.0580266     0.9075865    -1.1178013
O           0.6890430     0.1529422     0.6276572
19
260_C7H9NO2_0-1-14-12 (60,) energy =    -477.3391928
C           0.9776644    -0.8502827    -0.0729149
N           2.3160092    -1.2266656    -0.2181184
C           2.7297372    -2.4689784    -0.8795396
H           2.0679630    -3.2892542    -0.5960444
H           3.7401945    -2.7180011    -0.5495016
H           2.7363695    -2.3763312    -1.9726469
C          -0.0626251    -1.8720230    -0.5077340
H          -1.0424108    -1.4094234    -0.3854573
H          -0.0198428    -2.7762085     0.1110856
H           0.0659784    -2.1771349    -1.5520369
C           4.8241851     1.2041818     0.7544383
H           5.3760801     1.9018818     1.3689380
C           3.6732389     0.4392922     1.1372148
H           3.1585042     0.4434736     2.0858953
C           3.3196910    -0.2854753     0.0399547
O           4.1820370    -0.0351155    -0.9960977
C           5.0964092     0.8722220    -0.5358122
H           5.8619036     1.1600709    -1.2396784
O           0.6594170     0.2247335     0.4054038
19
260_C7H9NO2_0-1-14-12 (75,) energy =    -477.3387435
C           0.9803792    -0.7974251    -0.1623871
N           2.3125965    -1.2195085    -0.2090955
C           2.7292287    -2.5097944    -0.7698850
H           2.0325079    -3.2984020    -0.4790834
H           3.7123290    -2.7604354    -0.3654094
H           2.8007309    -2.4833144    -1.8647030
C          -0.0687492    -1.8291547    -0.5497044
H          -1.0421177    -1.3408109    -0.4947378
H          -0.0624602    -2.6857117     0.1346083
H           0.0859790    -2.2127393    -1.5642922
C           4.8690533     1.1599982     0.7668713
H           5.4740935     1.7960568     1.3979270
C           3.7890213     0.3098244     1.1732996
H           3.3960123     0.1686234     2.1694209
C           3.3241286    -0.2849250     0.0408430
O           4.0519148     0.1310613    -1.0470207
C           4.9888192     1.0059580    -0.5797838
H           5.6555766     1.4172555    -1.3221815
O           0.6749169     0.3266645     0.1942061
19
260_C7H9NO2_0-1-14-12 (90,) energy =    -477.3386449
C           0.9834276    -0.7736855    -0.2457097
N           2.3051182    -1.2258470    -0.1937576
C           2.7222885    -2.5521168    -0.6627559
H           1.9973205    -3.3121586    -0.3644134
H           3.6799297    -2.7957114    -0.1974832
H           2.8462628    -2.5874783    -1.7531799
C          -0.0731036    -1.8061280    -0.6092746
H          -1.0375070    -1.2974036    -0.6207656
H          -0.1093511    -2.6215022     0.1225950
H           0.1114290    -2.2507706    -1.5936761
C           4.9059399     1.1166701     0.7547889
H           5.5664706     1.6959771     1.3847973
C           3.8970763     0.1898317     1.1749225
H           3.6251169    -0.0800118     2.1852464
C           3.3162312    -0.2855898     0.0393609
O           3.9063350     0.2779703    -1.0657697
C           4.8676297     1.1266208    -0.6059208
H           5.4283630     1.6532946    -1.3631246
O           0.6942274     0.3817120     0.0099058
19
260_C7H9NO2_0-1-14-12 (105,) energy =    -477.3384886
C           0.9793665    -0.7590368    -0.3117295
N           2.2899231    -1.2231158    -0.1730068
C           2.7061085    -2.5768700    -0.5585843
H           1.9834185    -3.3170922    -0.2078557
H           3.6662895    -2.7877642    -0.0840045
H           2.8246870    -2.6827445    -1.6454166
C          -0.0707748    -1.7941051    -0.6843046
H          -1.0231338    -1.2732324    -0.7878538
H          -0.1685475    -2.5630830     0.0910805
H           0.1682383    -2.3007012    -1.6260400
C           4.9535915     1.0681669     0.7249531
H           5.6792349     1.5874278     1.3353592
C           4.0082590     0.0791398     1.1510013
H           3.8586368    -0.3062152     2.1495531
C           3.2978261    -0.2746500     0.0442354
O           3.7510396     0.4194557    -1.0497909
C           4.7488492     1.2349038    -0.6106474
H           5.2011895     1.8666156    -1.3599834
O           0.6960623     0.4102794    -0.1199391
19
260_C7H9NO2_0-1-14-12 (120,) energy =    -477.3378874
C           0.9274236    -1.0048931    -0.1098734
N           2.2550982    -1.4269053    -0.0043611
C           2.6912409    -2.7836299    -0.3574239
H           2.7594535    -2.9291263    -1.4442780
H           2.0072331    -3.5275894     0.0567492
H           3.6789011    -2.9505569     0.0752475
C          -0.1021215    -2.0756146    -0.4361663
H          -1.0710013    -1.5830825    -0.5238951
H          -0.1591251    -2.8325265     0.3549486
H           0.1268525    -2.5929291    -1.3746553
C           4.9893618     0.8731688     0.6114727
H           5.8159941     1.3485333     1.1208334
C           4.1658188    -0.1931507     1.0995543
H           4.2307938    -0.6931155     2.0556896
C           3.2447526    -0.4428460     0.1263197
O           3.4578203     0.3826483    -0.9470114
C           4.5092683     1.1849483    -0.6236350
H           4.7792960     1.9228603    -1.3636108
O           0.6152898     0.1584560     0.0736722
19
260_C7H9NO2_0-1-14-12 (135,) energy =    -477.3367396
C           0.9686865    -0.8221156    -0.4516552
N           2.2977028    -1.2274824    -0.2903592
C           2.6935198    -2.6336890    -0.1767109
H           2.1133389    -3.2529640    -0.8633839
H           2.5592164    -3.0224940     0.8418241
H           3.7478555    -2.7203445    -0.4450061
C          -0.0448785    -1.9198131    -0.7413080
H          -1.0219842    -1.4430762    -0.8247365
H          -0.0798730    -2.6716333     0.0550815
H           0.1789039    -2.4387418    -1.6808638
C           5.0937156     0.9321162     0.5077954
H           5.9819604     1.2914280     1.0083602
C           4.3235677    -0.2314401     0.8393071
H           4.4981675    -0.9265893     1.6483465
C           3.2887198    -0.2669601    -0.0519196
O           3.3806184     0.7752308    -0.9256818
C           4.4725894     1.5063255    -0.5569035
H           4.6511541     2.3988251    -1.1363016
O           0.6420411     0.3485373    -0.3738689
19
260_C7H9NO2_0-1-14-12 (150,) energy =    -477.3357124
C           0.9547037    -0.8383688    -0.5310021
N           2.2781771    -1.2196094    -0.2757625
C           2.6774901    -2.6071997    -0.0367428
H           2.0030034    -3.2908807    -0.5498896
H           2.6762001    -2.8544075     1.0335809
H           3.6871356    -2.7588006    -0.4266901
C          -0.0350893    -1.9582333    -0.8267386
H          -0.9923259    -1.4839127    -1.0450725
H          -0.1620627    -2.6340596     0.0264842
H           0.2692033    -2.5596739    -1.6910561
C           5.1310778     0.8852715     0.4516445
H           6.0727710     1.1922174     0.8848518
C           4.4122204    -0.3272895     0.7171261
H           4.6930655    -1.1181272     1.3973296
C           3.2742844    -0.2630370    -0.0413279
O           3.2546813     0.8825231    -0.7709606
C           4.3856334     1.5805433    -0.4465958
H           4.4865851     2.5421615    -0.9247582
O           0.6066424     0.3282311    -0.5290972
19
260_C7H9NO2_0-1-14-12 (165,) energy =    -477.3346768
C           0.9564966    -0.8186478    -0.6225872
N           2.2534518    -1.1941878    -0.2484800
C           2.6293442    -2.5722001     0.0666231
H           1.8614499    -3.2627057    -0.2713858
H           2.7670878    -2.7063591     1.1474171
H           3.5696952    -2.8203496    -0.4359031
C          -0.0350022    -1.9448430    -0.8967387
H          -0.9569776    -1.4700949    -1.2336227
H          -0.2525388    -2.5335870     0.0016236
H           0.3159266    -2.6308073    -1.6758753
C           5.1861620     0.8187740     0.4141169
H           6.1716131     1.0694277     0.7812358
C           4.4920088    -0.4241007     0.5882969
H           4.8450532    -1.2965015     1.1169392
C           3.2789660    -0.2648379    -0.0322065
O           3.1882376     0.9684297    -0.5870083
C           4.3565336     1.6235704    -0.2981836
H           4.4139148     2.6383755    -0.6587546
O           0.6224884     0.3465039    -0.7348120
19
260_C7H9NO2_0-1-14-12 (180,) energy =    -477.3341447
C           1.0006748    -0.8545004    -0.7676696
N           2.2541450    -1.1998298    -0.2461496
C           2.6058562    -2.5587462     0.1641755
H           1.7711439    -3.2337668     0.0022015
H           2.8709056    -2.5781566     1.2278724
H           3.4647265    -2.9196205    -0.4138798
C          -0.0250118    -1.9771135    -0.8994557
H          -0.9261779    -1.5218761    -1.3111097
H          -0.2715007    -2.4352658     0.0649281
H           0.3094342    -2.7702252    -1.5777486
C           5.2065462     0.7922122     0.3977445
H           6.2154649     1.0197692     0.7125179
C           4.5617945    -0.4880871     0.4332684
H           4.9875768    -1.4168557     0.7799103
C           3.2977331    -0.2829110    -0.0628542
O           3.1239077     1.0177775    -0.3958343
C           4.2987300     1.6644606    -0.1093257
H           4.3031239     2.7205954    -0.3271910
O           0.7222578     0.2809613    -1.1065928
