20
360_C9H10O_0-4-11-9 (-165,) energy =    -424.2055801
C           1.3510081    -1.7051144    -0.7112508
H           2.0050941    -2.5637474    -0.8954476
H           1.1658307    -1.2199407    -1.6753649
H           0.3985961    -2.0506158    -0.3047582
C           1.9549151    -0.7361094     0.2924723
C           5.9910545     0.7960077     0.2992460
H           7.0054063     1.1850123     0.3329926
C           5.1610418     0.8811654     1.4166824
H           5.5155554     1.3375253     2.3366684
C           3.8700153     0.3756590     1.3397130
H           3.1996501     0.4347618     2.1900133
C           3.3758203    -0.2340265     0.1711120
C           4.2132563    -0.3112860    -0.9714510
C           3.8097950    -0.8842246    -2.3149900
H           2.9135074    -0.4023834    -2.7199342
H           3.6096354    -1.9600536    -2.2732446
H           4.6148017    -0.7325017    -3.0398692
C           5.5109186     0.2136538    -0.8711297
H           6.1583645     0.1658641    -1.7432973
O           1.2718050    -0.3829175     1.2437561
20
360_C9H10O_0-4-11-9 (-150,) energy =    -424.2056247
C           1.3894188    -1.6994588    -0.4906328
H           1.9102165    -2.2047064     0.3291869
H           1.5903507    -2.2627416    -1.4086602
H           0.3121846    -1.7116151    -0.3115189
C           1.8208154    -0.2473409    -0.6336018
C           5.8211320     1.2016424     0.0550277
H           6.8188330     1.5878702     0.2466324
C           4.6973746     1.9877266     0.3087125
H           4.8038535     2.9951550     0.7012091
C           3.4346399     1.4686845     0.0484396
H           2.5445619     2.0641316     0.2219354
C           3.2602613     0.1624187    -0.4420086
C           4.3985439    -0.6357517    -0.7112860
C           4.3446390    -2.0289751    -1.3036229
H           3.7296425    -2.0697442    -2.2091528
H           3.9407571    -2.7675518    -0.6021915
H           5.3510942    -2.3587359    -1.5776656
C           5.6627481    -0.0844304    -0.4576934
H           6.5444782    -0.6822283    -0.6758865
O           0.9723998     0.6081259    -0.8387043
20
360_C9H10O_0-4-11-9 (-135,) energy =    -424.2048515
C           1.3971235    -1.6506658    -0.3764321
H           1.9383883    -2.0264792     0.4975439
H           1.5543810    -2.3597172    -1.1976690
H           0.3253521    -1.6114179    -0.1680861
C           1.8525016    -0.2529021    -0.7746727
C           5.8129895     1.1809076     0.1130890
H           6.8033721     1.5571900     0.3555410
C           4.6815838     1.9580075     0.3602561
H           4.7770102     2.9471619     0.7992577
C           3.4258432     1.4569066     0.0309358
H           2.5322946     2.0509542     0.1950185
C           3.2757645     0.1751008    -0.5215593
C           4.4176722    -0.6180805    -0.7738581
C           4.3513201    -1.9921499    -1.4070362
H           3.7036504    -2.0086968    -2.2904536
H           3.9734102    -2.7503355    -0.7107010
H           5.3481687    -2.3122010    -1.7249466
C           5.6737259    -0.0837094    -0.4578227
H           6.5617435    -0.6748331    -0.6693102
O           1.0418320     0.5525671    -1.2037966
20
360_C9H10O_0-4-11-9 (-120,) energy =    -424.2034336
C           1.3379362    -1.5537778    -0.1681729
H           1.2522487    -1.3938599     0.9151390
H           2.0174576    -2.3980702    -0.3099966
H           0.3509331    -1.7924840    -0.5708690
C           1.8455475    -0.2673356    -0.7983716
C           5.7940075     1.1475135     0.1747904
H           6.7826237     1.5170892     0.4338797
C           4.6593877     1.9033940     0.4703875
H           4.7515355     2.8677418     0.9622154
C           3.4040117     1.4166160     0.1164993
H           2.5115575     2.0023485     0.3169420
C           3.2621374     0.1673184    -0.5057691
C           4.4044155    -0.5996554    -0.8143740
C           4.3322589    -1.9307417    -1.5340260
H           3.5118684    -1.9681767    -2.2575710
H           4.1968344    -2.7674787    -0.8359393
H           5.2616673    -2.1196759    -2.0806228
C           5.6600757    -0.0802012    -0.4720210
H           6.5503503    -0.6508809    -0.7270240
O           1.0925206     0.4671379    -1.4144376
20
360_C9H10O_0-4-11-9 (-105,) energy =    -424.2023937
C           1.3675990    -1.4577678    -0.1000487
H           1.2290554    -1.1093901     0.9319697
H           2.0439333    -2.3180178    -0.0526190
H           0.4025681    -1.7596622    -0.5136985
C           1.9530620    -0.3253090    -0.9250347
C           5.8539815     1.1214644     0.1883534
H           6.8346481     1.4935443     0.4726000
C           4.7068682     1.8490229     0.5045593
H           4.7823846     2.7931065     1.0369567
C           3.4584463     1.3618996     0.1211418
H           2.5591247     1.9302375     0.3441455
C           3.3449125     0.1446529    -0.5614791
C           4.4967911    -0.5982609    -0.8842715
C           4.4177757    -1.9100743    -1.6356902
H           3.6372645    -1.8957206    -2.4038907
H           4.2028562    -2.7527188    -0.9647300
H           5.3678959    -2.1304599    -2.1322268
C           5.7430144    -0.0828250    -0.5063558
H           6.6419492    -0.6367886    -0.7677747
O           1.3045059     0.2427654    -1.7843327
20
360_C9H10O_0-4-11-9 (-90,) energy =    -424.2021775
C           1.2698829    -1.3191359    -0.0005591
H           1.1114900    -0.7997664     0.9532943
H           1.8925160    -2.1944955     0.2219886
H           0.3098017    -1.6381832    -0.4127646
C           1.9801550    -0.4018300    -0.9783852
C           5.8484977     1.1126056     0.1637718
H           6.8247248     1.4987513     0.4444200
C           4.6908374     1.8012455     0.5220472
H           4.7530943     2.7308459     1.0810252
C           3.4459352     1.2908509     0.1527317
H           2.5394055     1.8275084     0.4229601
C           3.3510128     0.0964137    -0.5683686
C           4.5149205    -0.6012769    -0.9461822
C           4.4368285    -1.8781551    -1.7533826
H           3.8433655    -1.7389487    -2.6638024
H           3.9698353    -2.6937903    -1.1852759
H           5.4345957    -2.2162866    -2.0483159
C           5.7540042    -0.0739106    -0.5648928
H           6.6605862    -0.6018632    -0.8519110
O           1.4826995    -0.0752430    -2.0395218
20
360_C9H10O_0-4-11-9 (-75,) energy =    -424.2034836
C           1.2577366    -1.3311111     0.1278346
H           1.0980851    -0.6778556     0.9942895
H           1.8179114    -2.2014307     0.4940300
H           0.2976699    -1.6557605    -0.2797790
C           2.0714939    -0.6307472    -0.9443244
C           5.8439202     1.1245525     0.1613318
H           6.7970394     1.5746890     0.4257776
C           4.6504655     1.7121498     0.5762042
H           4.6596925     2.6280021     1.1606044
C           3.4374895     1.1130998     0.2345813
H           2.5028521     1.5663241     0.5576271
C           3.4084652    -0.0626550    -0.5230263
C           4.6096845    -0.6490866    -0.9716354
C           4.6063788    -1.8920717    -1.8331033
H           4.1016621    -1.7076748    -2.7871601
H           4.0793014    -2.7243851    -1.3493505
H           5.6276236    -2.2240815    -2.0421719
C           5.8158224    -0.0443959    -0.6015033
H           6.7505791    -0.4947786    -0.9274009
O           1.7017204    -0.5755152    -2.1028899
20
360_C9H10O_0-4-11-9 (-60,) energy =    -424.2055651
C           1.1672140    -1.2096223     0.2005435
H           1.0110911    -0.4341877     0.9586895
H           1.6315924    -2.0611525     0.7152578
H           0.2087672    -1.5198987    -0.2214102
C           2.0953808    -0.7496162    -0.9106668
C           5.8153560     1.1328872     0.1545000
H           6.7552191     1.6160438     0.4081923
C           4.6090390     1.6528272     0.6192300
H           4.5934349     2.5503019     1.2312123
C           3.4173791     1.0058321     0.2939503
H           2.4745124     1.4068945     0.6578487
C           3.4155628    -0.1459189    -0.5036442
C           4.6315349    -0.6587974    -1.0079909
C           4.6788318    -1.8694929    -1.9128177
H           4.2347228    -1.6470727    -2.8878464
H           4.1165053    -2.7145332    -1.4988408
H           5.7120353    -2.1954699    -2.0663635
C           5.8177917    -0.0122939    -0.6439378
H           6.7632142    -0.4105380    -1.0048475
O           1.8201661    -0.9334681    -2.0838963
20
360_C9H10O_0-4-11-9 (-45,) energy =    -424.2074191
C           1.0911014    -1.0906475     0.2454740
H           0.7847494    -0.1595817     0.7355221
H           1.5269376    -1.7298753     1.0231406
H           0.2125665    -1.5772039    -0.1828775
C           2.1136924    -0.8552019    -0.8566973
C           5.8007709     1.1208045     0.1570047
H           6.7320984     1.6250252     0.4012025
C           4.5933567     1.5810760     0.6789513
H           4.5672976     2.4526583     1.3268831
C           3.4155222     0.9069441     0.3641988
H           2.4753426     1.2639349     0.7746615
C           3.4201414    -0.2126291    -0.4819305
C           4.6398395    -0.6653207    -1.0406913
C           4.7217226    -1.8391955    -1.9899110
H           4.3288359    -1.5746698    -2.9763794
H           4.1306873    -2.6932785    -1.6446427
H           5.7610783    -2.1631747    -2.1042712
C           5.8143676     0.0080801    -0.6846048
H           6.7609108    -0.3454437    -1.0866453
O           1.9011856    -1.2437593    -1.9942420
20
360_C9H10O_0-4-11-9 (-30,) energy =    -424.2090162
C           1.0299037    -0.9706324     0.2063928
H           0.5856917     0.0245133     0.3324427
H           1.4039205    -1.2875507     1.1860901
H           0.2509537    -1.6541907    -0.1364211
C           2.1445490    -0.9535571    -0.8336371
C           5.7953385     1.0962615     0.1640205
H           6.7162821     1.6194739     0.4077657
C           4.5883164     1.4920547     0.7381283
H           4.5511750     2.3298590     1.4286546
C           3.4260354     0.7959053     0.4190799
H           2.4885724     1.1016292     0.8731712
C           3.4390922    -0.2835131    -0.4805135
C           4.6613298    -0.6751090    -1.0838469
C           4.7726967    -1.8087336    -2.0768592
H           4.3259010    -1.5379700    -3.0382266
H           4.2434451    -2.7053423    -1.7411195
H           5.8249084    -2.0641421    -2.2396298
C           5.8215978     0.0233161    -0.7264737
H           6.7683482    -0.2812838    -1.1661007
O           1.9823897    -1.5117870    -1.9087104
20
360_C9H10O_0-4-11-9 (-15,) energy =    -424.2099515
C           0.9891553    -0.8579609     0.1696466
H           0.5970528     0.1648086     0.1134489
H           1.2588423    -1.0499947     1.2140859
H           0.2040803    -1.5494217    -0.1409876
C           2.1807876    -1.0466961    -0.7640031
C           5.8015748     1.0963867     0.1577932
H           6.7147339     1.6399096     0.3859732
C           4.6037239     1.4377479     0.7835652
H           4.5654367     2.2510752     1.5026598
C           3.4521264     0.7195780     0.4779608
H           2.5240483     0.9878904     0.9714245
C           3.4618117    -0.3336063    -0.4543425
C           4.6793009    -0.6771055    -1.1005823
C           4.8060068    -1.7853560    -2.1192566
H           4.2524715    -1.5533284    -3.0339398
H           4.3911297    -2.7286035    -1.7524731
H           5.8596542    -1.9390520    -2.3750288
C           5.8279866     0.0509848    -0.7640915
H           6.7675602    -0.2114523    -1.2441913
O           2.0688420    -1.7850714    -1.7328288
20
360_C9H10O_0-4-11-9 (0,) energy =    -424.2101936
C           0.9582317    -0.7675918     0.1023542
H           0.6693238     0.2749484    -0.0742346
H           1.1010554    -0.8915461     1.1822160
H           0.1522937    -1.4239226    -0.2298262
C           2.2173176    -1.1403195    -0.6748203
C           5.8063894     1.0992205     0.1444584
H           6.7118765     1.6641251     0.3502074
C           4.6243535     1.3913129     0.8228488
H           4.5913624     2.1846174     1.5642144
C           3.4809003     0.6520170     0.5388086
H           2.5655398     0.8855641     1.0713689
C           3.4836302    -0.3829220    -0.4145132
C           4.6885194    -0.6826425    -1.1068155
C           4.8141372    -1.7690439    -2.1485724
H           4.1323904    -1.6057251    -2.9883712
H           4.5537403    -2.7511813    -1.7436642
H           5.8405873    -1.8039438    -2.5286992
C           5.8261409     0.0766576    -0.8025710
H           6.7525011    -0.1449327    -1.3268161
O           2.1609977    -2.0496403    -1.4917160
20
360_C9H10O_0-4-11-9 (15,) energy =    -424.2099514
C           0.9483756    -0.7006072     0.0098626
H           0.7636438     0.3422344    -0.2702829
H           0.9526323    -0.7518138     1.1055975
H           0.1403203    -1.3314396    -0.3644124
C           2.2599269    -1.2192120    -0.5717800
C           5.8155031     1.1075134     0.1328062
H           6.7144428     1.6913269     0.3128393
C           4.6561927     1.3552300     0.8659879
H           4.6360855     2.1297063     1.6274632
C           3.5179148     0.5980178     0.6083053
H           2.6177810     0.7981601     1.1797889
C           3.5094434    -0.4186934    -0.3635762
C           4.6928439    -0.6804430    -1.1044844
C           4.7992733    -1.7491081    -2.1668373
H           4.0053176    -1.6634800    -2.9145588
H           4.6974878    -2.7506814    -1.7390868
H           5.7681404    -1.6783467    -2.6722918
C           5.8207874     0.1064111    -0.8373927
H           6.7283662    -0.0776125    -1.4071274
O           2.2595249    -2.2661639    -1.2043858
20
360_C9H10O_0-4-11-9 (30,) energy =    -424.2090164
C           0.9346181    -0.6686184    -0.1108075
H           0.8177623     0.3255023    -0.5559861
H           0.8243559    -0.5555592     0.9748315
H           0.1474115    -1.3345922    -0.4690285
C           2.2828526    -1.2825700    -0.4709046
C           5.8089589     1.1097368     0.1369349
H           6.7032496     1.7066361     0.2958914
C           4.6769373     1.3145280     0.9241730
H           4.6760498     2.0659262     1.7087191
C           3.5406928     0.5454307     0.6900535
H           2.6580602     0.7118838     1.2997802
C           3.5150474    -0.4430178    -0.3083469
C           4.6719904    -0.6698701    -1.0965300
C           4.7475906    -1.7220151    -2.1785969
H           3.8738026    -1.7013233    -2.8365038
H           4.7780253    -2.7284620    -1.7504969
H           5.6462424    -1.5728415    -2.7860859
C           5.7937399     0.1348455    -0.8601803
H           6.6798184    -0.0150794    -1.4723603
O           2.3342327    -2.4192598    -0.9169637
20
360_C9H10O_0-4-11-9 (45,) energy =    -424.2074193
C           0.9556025    -0.6311996    -0.2370232
H           0.8549286     0.1458469    -1.0047424
H           0.8211723    -0.1381982     0.7323900
H           0.1754847    -1.3835755    -0.3688794
C           2.3162623    -1.3012459    -0.3618722
C           5.8426547     1.1131513     0.1477161
H           6.7389560     1.7129997     0.2820220
C           4.7519287     1.2791432     0.9990975
H           4.7869742     2.0006932     1.8104734
C           3.6083547     0.5100037     0.7957711
H           2.7575153     0.6434250     1.4576668
C           3.5415932    -0.4393676    -0.2355711
C           4.6585694    -0.6345650    -1.0835137
C           4.6777353    -1.6630629    -2.1915038
H           3.7587198    -1.6487435    -2.7858802
H           4.7635515    -2.6757793    -1.7859977
H           5.5242140    -1.4831972    -2.8618752
C           5.7847123     0.1718991    -0.8806495
H           6.6398610     0.0497706    -1.5412272
O           2.4012794    -2.4897561    -0.6270973
20
360_C9H10O_0-4-11-9 (60,) energy =    -424.2055653
C           0.9997033    -0.6657045    -0.3751290
H           0.9473899    -0.1535110    -1.3449550
H           0.8512778     0.1025976     0.3918267
H           0.2050800    -1.4127066    -0.3161732
C           2.3542235    -1.3430816    -0.2561968
C           5.8607169     1.1172699     0.1538772
H           6.7545379     1.7254498     0.2649852
C           4.8103013     1.2383139     1.0613130
H           4.8764718     1.9335231     1.8935036
C           3.6669210     0.4589140     0.8887002
H           2.8438364     0.5533015     1.5928954
C           3.5671733    -0.4516151    -0.1713113
C           4.6422179    -0.6054958    -1.0749064
C           4.6031340    -1.6089441    -2.2055336
H           3.6869870    -1.5218268    -2.8011557
H           4.6291087    -2.6331339    -1.8211416
H           5.4557141    -1.4665561    -2.8764918
C           5.7671457     0.2082402    -0.9015424
H           6.5922188     0.1178375    -1.6042167
O           2.4642846    -2.5560476    -0.3072738
20
360_C9H10O_0-4-11-9 (75,) energy =    -424.2034836
C           1.0641954    -0.7222221    -0.5192053
H           1.1411398    -0.3225424    -1.5388575
H           0.8347080     0.1301983     0.1317103
H           0.2586701    -1.4585387    -0.4718923
C           2.3840054    -1.3651183    -0.1357877
C           5.8808917     1.1316630     0.1357326
H           6.7718898     1.7493248     0.2106570
C           4.8815571     1.2196206     1.1028432
H           4.9854230     1.8994803     1.9439106
C           3.7409187     0.4249590     0.9829439
H           2.9566642     0.4911847     1.7338642
C           3.5951649    -0.4602486    -0.0905525
C           4.6134909    -0.5771172    -1.0587552
C           4.5046246    -1.5606405    -2.2024334
H           3.5996981    -1.3944909    -2.8008332
H           4.4565893    -2.5900488    -1.8323322
H           5.3648657    -1.4754538    -2.8729649
C           5.7399509     0.2428309    -0.9316212
H           6.5261771     0.1743942    -1.6799398
O           2.4844226    -2.5608514     0.0696058
20
360_C9H10O_0-4-11-9 (90,) energy =    -424.2021775
C           1.1237764    -0.8367924    -0.5096072
H           1.3042556    -0.5522562    -1.5535995
H           0.8207718     0.0789016     0.0141886
H           0.3216711    -1.5766001    -0.4569559
C           2.3909681    -1.3939582     0.1115791
C           5.8799710     1.1336580     0.1229291
H           6.7644302     1.7649885     0.1296279
C           4.9651905     1.1944393     1.1728087
H           5.1289461     1.8694875     2.0082623
C           3.8354205     0.3761083     1.1476905
H           3.1218521     0.4136652     1.9675870
C           3.6129277    -0.4987459     0.0796070
C           4.5370695    -0.5770942    -0.9805905
C           4.3324699    -1.5388279    -2.1300666
H           3.4557693    -1.2726274    -2.7355598
H           4.1771511    -2.5622922    -1.7711273
H           5.1999127    -1.5420651    -2.7966927
C           5.6631095     0.2529811    -0.9377685
H           6.3854710     0.2009503    -1.7492429
O           2.4342666    -2.5011200     0.6140220
20
360_C9H10O_0-4-11-9 (105,) energy =    -424.2023937
C           1.1988332    -0.9181400    -0.6721296
H           1.4928145    -0.7781448    -1.7179232
H           0.8296624     0.0528925    -0.3165565
H           0.3985222    -1.6584572    -0.6016751
C           2.3735965    -1.3418741     0.1917066
C           5.8790494     1.1596852     0.1287968
H           6.7615214     1.7938180     0.1207204
C           5.0010542     1.1899820     1.2120337
H           5.1905243     1.8464559     2.0567743
C           3.8807825     0.3606179     1.2101583
H           3.2005039     0.3607662     2.0579434
C           3.6209796    -0.4874186     0.1266975
C           4.5004222    -0.5245264    -0.9724592
C           4.2639739    -1.4392761    -2.1552749
H           3.5633649    -0.9995680    -2.8779309
H           3.8537410    -2.4074216    -1.8487793
H           5.1990284    -1.6298849    -2.6911743
C           5.6299928     0.3029910    -0.9432546
H           6.3281297     0.2687861    -1.7767620
O           2.2928695    -2.2744422     0.9698624
20
360_C9H10O_0-4-11-9 (120,) energy =    -424.2034336
C           1.1656441    -1.0052218    -0.7502112
H           1.5340280    -1.0421797    -1.7786331
H           0.7647084     0.0051498    -0.5926148
H           0.3617262    -1.7317399    -0.6115651
C           2.2540283    -1.2498544     0.2820119
C           5.8400693     1.1307578     0.1756081
H           6.7375108     1.7435483     0.1631438
C           4.9893116     1.1499603     1.2810081
H           5.2141876     1.7767427     2.1394537
C           3.8526086     0.3461921     1.2811671
H           3.1917970     0.3299605     2.1430242
C           3.5365154    -0.4590956     0.1767683
C           4.3948340    -0.4894964    -0.9415547
C           4.1471288    -1.3750925    -2.1454148
H           3.5079517    -0.8840943    -2.8911771
H           3.6701012    -2.3219642    -1.8736587
H           5.0918958    -1.6140194    -2.6439978
C           5.5465801     0.3081861    -0.9110507
H           6.2295549     0.2747613    -1.7570530
O           2.0505981    -1.9645901     1.2483450
20
360_C9H10O_0-4-11-9 (135,) energy =    -424.2048520
C           1.2580665    -1.1948881    -0.8576268
H           1.4508470    -2.0140658    -1.5602393
H           1.3030414    -0.2560422    -1.4185016
H           0.2579412    -1.3381601    -0.4418591
C           2.2560889    -1.2235580     0.2926233
C           5.8881018     1.0845516     0.2002720
H           6.7947149     1.6838856     0.1940254
C           5.0652333     1.0619933     1.3259172
H           5.3194008     1.6435825     2.2076510
C           3.9152601     0.2784959     1.3125614
H           3.2702349     0.2287774     2.1841589
C           3.5561570    -0.4686210     0.1795141
C           4.3850983    -0.4496924    -0.9647916
C           4.0985638    -1.2585440    -2.2125590
H           3.2758163    -0.8341087    -2.8003554
H           3.8323598    -2.2954628    -1.9800321
H           4.9803017    -1.2831060    -2.8599490
C           5.5509648     0.3260169    -0.9203129
H           6.2096488     0.3300632    -1.7856917
O           1.9597281    -1.7715816     1.3423704
20
360_C9H10O_0-4-11-9 (150,) energy =    -424.2056248
C           1.2752222    -1.3109854    -0.8985150
H           1.5887081    -2.1855014    -1.4793629
H           1.2783454    -0.4473954    -1.5714298
H           0.2636983    -1.4915746    -0.5285693
C           2.1804609    -1.1005870     0.3062512
C           5.9229873     1.0353495     0.2181531
H           6.8575910     1.5901573     0.2189603
C           5.1065251     1.0228569     1.3487902
H           5.3930863     1.5672413     2.2442389
C           3.9199625     0.2997576     1.3197988
H           3.2740002     0.2603375     2.1904740
C           3.5101972    -0.4004486     0.1712882
C           4.3408708    -0.3996134    -0.9755705
C           4.0441002    -1.1688859    -2.2463979
H           3.2009813    -0.7470873    -2.8048341
H           3.8096667    -2.2203313    -2.0479588
H           4.9144912    -1.1480725    -2.9087983
C           5.5416517     0.3223065    -0.9167883
H           6.1952008     0.3168605    -1.7858454
O           1.7891438    -1.4441453     1.4119430
20
360_C9H10O_0-4-11-9 (165,) energy =    -424.2055800
C           1.2275971    -1.4262811    -0.8148407
H           1.6568689    -2.3252715    -1.2695656
H           1.1618294    -0.6619742    -1.5962023
H           0.2268187    -1.6629990    -0.4486807
C           2.0521784    -0.9552397     0.3723039
C           5.9140896     0.9696401     0.2355018
H           6.8793736     1.4692037     0.2285515
C           5.1120636     0.9910293     1.3761756
H           5.4401179     1.5066153     2.2744351
C           3.8848773     0.3416784     1.3517941
H           3.2436484     0.3352129     2.2262636
C           3.4173042    -0.3274433     0.2049853
C           4.2360288    -0.3619800    -0.9530871
C           3.8999724    -1.0868829    -2.2406539
H           3.0313263    -0.6597378    -2.7526598
H           3.6904250    -2.1492965    -2.0765313
H           4.7454753    -1.0264391    -2.9319970
C           5.4750638     0.2950317    -0.9010049
H           6.1132568     0.2685631    -1.7808535
O           1.5729905    -1.0618873     1.4927145
20
360_C9H10O_0-4-11-9 (180,) energy =    -424.2053909
C           1.2639189    -1.5813419    -0.7359886
H           1.8075744    -2.4769796    -1.0542333
H           1.1316526    -0.9475198    -1.6189457
H           0.2840949    -1.8736549    -0.3541941
C           1.9899387    -0.8487946     0.3801742
C           5.9522109     0.8699571     0.2664727
H           6.9451519     1.3120681     0.2691921
C           5.1454672     0.9287840     1.4024190
H           5.4964840     1.4171339     2.3072091
C           3.8827007     0.3536355     1.3641512
H           3.2332377     0.3837690     2.2317868
C           3.3864085    -0.2893988     0.2137790
C           4.2054351    -0.3509561    -0.9442077
C           3.8275906    -1.0012270    -2.2598701
H           2.9457144    -0.5412714    -2.7179641
H           3.6184863    -2.0709622    -2.1557767
H           4.6515014    -0.9006179    -2.9721853
C           5.4781268     0.2381642    -0.8800372
H           6.1129275     0.1963013    -1.7616711
O           1.4125232    -0.7125320     1.4503456
