20
288_C7H9ClN2O_12-0-1-2 (-165,) energy =    -917.0823189
C           2.7119831    -0.6487569    -1.1477852
N           1.3710695    -0.7173618    -0.8742809
C           0.5908707    -1.7502544    -1.5411161
H           1.2575441    -2.5485495    -1.8648482
H           0.0653663    -1.3562313    -2.4228623
H          -0.1541409    -2.1445781    -0.8405440
C           0.6014761     0.3419823    -0.2394337
H           0.0650267    -0.0263564     0.6420645
H           1.2569562     1.1568044     0.0647412
H          -0.1340098     0.7374292    -0.9544567
C           3.7093486     0.4997882     1.0766741
Cl          2.5897907     0.1339782     2.3584627
C           3.6060976     0.1437600    -0.2681762
N           4.7826147     0.5644224    -0.8516347
H           5.0002699     0.3099847    -1.8060135
C           5.5955843     1.1616315     0.0610895
H           6.5612132     1.5581056    -0.2174012
C           4.9525260     1.1439419     1.2849024
H           5.3225707     1.5334853     2.2220614
O           3.2257941    -1.2681706    -2.0869077
20
288_C7H9ClN2O_12-0-1-2 (-150,) energy =    -917.0795928
C           2.7047554    -0.5433183    -1.2623256
N           1.3605788    -0.6206314    -0.9979543
C           0.6189281    -1.7839951    -1.4591669
H           1.3190723    -2.5087529    -1.8733721
H          -0.1093629    -1.5182009    -2.2381129
H           0.0744985    -2.2266180    -0.6150744
C           0.5840927     0.4100504    -0.3306790
H           0.1097999     0.0340060     0.5831967
H           1.2231250     1.2542190    -0.0714510
H          -0.2041465     0.7672685    -1.0085887
C           3.6852221     0.4711543     1.0316935
Cl          2.5267704     0.0869559     2.2723419
C           3.6027563     0.1799076    -0.3304583
N           4.8052966     0.5907176    -0.8673252
H           5.0369995     0.3740044    -1.8277365
C           5.6151509     1.1169763     0.0899314
H           6.6005283     1.4915244    -0.1467594
C           4.9429043     1.0633737     1.2971776
H           5.3034050     1.3950257     2.2599714
O           3.2226410    -1.1373084    -2.2152026
20
288_C7H9ClN2O_12-0-1-2 (-135,) energy =    -917.0748969
C           2.6900101    -0.4373552    -1.3660114
N           1.3366928    -0.5280940    -1.1236220
C           0.6572567    -1.7912574    -1.3700513
H           1.3456203    -2.4719056    -1.8710983
H          -0.2232881    -1.6527044    -2.0113298
H           0.3252149    -2.2280875    -0.4177324
C           0.5627999     0.4823095    -0.4229542
H           0.1526763     0.1075133     0.5223481
H           1.1855123     1.3531409    -0.2127945
H          -0.2739781     0.8018426    -1.0597693
C           3.6512135     0.4465737     0.9888609
Cl          2.4621094     0.0405904     2.1924578
C           3.5877212     0.2187476    -0.3870006
N           4.8110795     0.6231272    -0.8820016
H           5.0548544     0.4460329    -1.8475799
C           5.6157771     1.0810263     0.1129601
H           6.6159914     1.4373066    -0.0870653
C           4.9187025     0.9901910     1.3041533
H           5.2694728     1.2658121     2.2879729
O           3.2144001    -0.9937144    -2.3366308
20
288_C7H9ClN2O_12-0-1-2 (-120,) energy =    -917.0690477
C           2.6767356    -0.3489142    -1.4478572
N           1.3119803    -0.4814371    -1.2335508
C           0.7284940    -1.8157156    -1.2715771
H           1.3956205    -2.4818824    -1.8204346
H          -0.2423591    -1.8020981    -1.7828035
H           0.5777028    -2.1995237    -0.2515777
C           0.5275586     0.5197566    -0.5269052
H           0.1713227     0.1653180     0.4478490
H           1.1230002     1.4220468    -0.3725942
H          -0.3466429     0.7867272    -1.1365511
C           3.5935519     0.4037799     0.9687765
Cl          2.3722665    -0.0403251     2.1248853
C           3.5606587     0.2420223    -0.4183475
N           4.8015056     0.6541315    -0.8633866
H           5.0643125     0.5256975    -1.8317346
C           5.5863704     1.0528302     0.1707681
H           6.5958211     1.4044852     0.0130712
C           4.8590492     0.9138669     1.3397072
H           5.1894705     1.1363839     2.3437904
O           3.2156287    -0.8348757    -2.4455122
20
288_C7H9ClN2O_12-0-1-2 (-105,) energy =    -917.0658287
C           2.5270116     0.0343322    -1.1197869
N           1.2634543    -0.2656077    -0.5078600
C           0.9271387    -1.6873428    -0.6803171
H           1.7241406    -2.3100972    -0.2611179
H           0.7832322    -1.9596916    -1.7386248
H           0.0056158    -1.9012996    -0.1298128
C           0.1993077     0.5807265    -1.0690482
H          -0.7171731     0.3948577    -0.4999033
H           0.4691750     1.6340003    -0.9500508
H           0.0061040     0.3861845    -2.1343907
C           3.8732327     0.1703746     1.1690251
Cl          2.7258961    -0.2030006     2.4117571
C           3.6517349     0.2205486    -0.2124001
N           4.8721195     0.5453584    -0.7754154
H           4.9653010     0.6615041    -1.7757706
C           5.8166011     0.7086169     0.1830321
H           6.8336248     0.9779043    -0.0640809
C           5.2277164     0.4781119     1.4178850
H           5.7075852     0.5246066     2.3845323
O           2.6664982     0.2333240    -2.3229870
20
288_C7H9ClN2O_12-0-1-2 (-90,) energy =    -917.0705518
C           2.5010864     0.1725889    -1.1230662
N           1.2481765    -0.1621208    -0.5447231
C           0.9985339    -1.6125630    -0.5298620
H           1.8375976    -2.1325818    -0.0589237
H           0.8553625    -2.0131952    -1.5461357
H           0.0997047    -1.8151435     0.0604967
C           0.1366572     0.5322977    -1.2102744
H          -0.7693560     0.3570980    -0.6215757
H           0.3375174     1.6057721    -1.2350341
H          -0.0323918     0.1874769    -2.2404208
C           3.8816507     0.0705236     1.1548971
Cl          2.7353771    -0.3795308     2.3759451
C           3.6444857     0.2413614    -0.2121113
N           4.8620312     0.5908601    -0.7622329
H           4.9383759     0.8104882    -1.7465952
C           5.8221573     0.6600094     0.1942575
H           6.8392889     0.9368876    -0.0433435
C           5.2448691     0.3344835     1.4119034
H           5.7360193     0.2924131     2.3730837
O           2.6265872     0.5587899    -2.2835540
20
288_C7H9ClN2O_12-0-1-2 (-75,) energy =    -917.0757867
C           2.4692237     0.3045403    -1.1257249
N           1.2303041    -0.1004568    -0.6051800
C           1.0627773    -1.5513309    -0.4382136
H           1.9504938    -1.9839521     0.0273809
H           0.8920474    -2.0465829    -1.4068563
H           0.2059409    -1.7469345     0.2136453
C           0.0911765     0.4828660    -1.3214895
H          -0.8133745     0.2833508    -0.7384740
H           0.2285493     1.5617109    -1.4118227
H          -0.0346275     0.0662070    -2.3311841
C           3.8795464     0.0205744     1.1304133
Cl          2.7287067    -0.4037451     2.3593739
C           3.6286875     0.2573738    -0.2231409
N           4.8495565     0.5852962    -0.7764762
H           4.9148562     0.8652043    -1.7463272
C           5.8276036     0.5744327     0.1656652
H           6.8510643     0.8194040    -0.0792232
C           5.2568423     0.2192664     1.3768203
H           5.7589266     0.1181493     2.3279218
O           2.5901678     0.8449356    -2.2257436
20
288_C7H9ClN2O_12-0-1-2 (-60,) energy =    -917.0797600
C           2.4533093     0.4224792    -1.0955009
N           1.2287952    -0.0742561    -0.6670541
C           1.1175414    -1.5070073    -0.3766102
H           2.0467676    -1.8829269     0.0514320
H           0.8988309    -2.0726085    -1.2953944
H           0.3111844    -1.6813617     0.3425730
C           0.0751294     0.4344755    -1.4085966
H          -0.8282285     0.2127511    -0.8317154
H           0.1689863     1.5132910    -1.5368937
H          -0.0169581    -0.0233025    -2.4042821
C           3.8750423    -0.0109819     1.1391290
Cl          2.7170087    -0.3987895     2.3759970
C           3.6196904     0.2693898    -0.2043422
N           4.8452939     0.5748128    -0.7587577
H           4.9066003     0.9077927    -1.7119988
C           5.8324920     0.5023886     0.1722858
H           6.8619391     0.7143044    -0.0780424
C           5.2616257     0.1316404     1.3775742
H           5.7679846    -0.0152131     2.3204260
O           2.5769758     1.0983629    -2.1198397
20
288_C7H9ClN2O_12-0-1-2 (-45,) energy =    -917.0819936
C           2.4335236     0.5204010    -1.0559140
N           1.2305147    -0.0698189    -0.7341126
C           1.1493472    -1.4713568    -0.3277224
H           2.1114393    -1.8171562     0.0468896
H           0.8650661    -2.0967961    -1.1871724
H           0.4009022    -1.6010715     0.4607797
C           0.0707678     0.3943276    -1.4891500
H          -0.8330204     0.1634777    -0.9161898
H           0.1435263     1.4707193    -1.6434922
H          -0.0004956    -0.0910779    -2.4734269
C           3.8749520    -0.0333061     1.1464504
Cl          2.7224572    -0.4057959     2.3952817
C           3.6078798     0.2881827    -0.1848293
N           4.8319138     0.5863906    -0.7456634
H           4.8870395     0.9623028    -1.6831256
C           5.8310775     0.4620252     0.1683055
H           6.8619272     0.6536636    -0.0922156
C           5.2684414     0.0689977     1.3693846
H           5.7834183    -0.1174799     2.3004955
O           2.5529068     1.3054424    -2.0020895
20
288_C7H9ClN2O_12-0-1-2 (-30,) energy =    -917.0827056
C           2.3909976     0.5982975    -1.0678417
N           1.2280341    -0.0907742    -0.8397896
C           1.1723182    -1.4503275    -0.3182494
H           2.1616959    -1.7809718    -0.0074062
H           0.8118724    -2.1296277    -1.1039740
H           0.4927821    -1.5187564     0.5382431
C           0.0448382     0.3371535    -1.5752270
H          -0.8435031     0.1435446    -0.9643956
H           0.1212933     1.4017257    -1.7927292
H          -0.0581731    -0.2058229    -2.5258524
C           3.8970123    -0.0259447     1.0786377
Cl          2.7824209    -0.4152011     2.3580983
C           3.5895165     0.3262344    -0.2356359
N           4.7956470     0.6452024    -0.8231263
H           4.8224777     1.0555432    -1.7471801
C           5.8225224     0.4987831     0.0570836
H           6.8448049     0.6973416    -0.2304952
C           5.2968856     0.0733945     1.2630587
H           5.8390722    -0.1358530     2.1736549
O           2.4794706     1.4687422    -1.9417880
20
288_C7H9ClN2O_12-0-1-2 (-15,) energy =    -917.0823238
C           2.3743896     0.6495698    -1.0257580
N           1.2469220    -0.1183033    -0.9203999
C           1.1708515    -1.4309399    -0.2990972
H           2.1630718    -1.7755917    -0.0133194
H           0.7526661    -2.1446328    -1.0215831
H           0.5290458    -1.4217807     0.5893485
C           0.0572051     0.3039199    -1.6466413
H          -0.8200165     0.2270672    -0.9931244
H           0.1894682     1.3338753    -1.9739122
H          -0.1103709    -0.3300949    -2.5284396
C           3.9000805    -0.0598663     1.0879960
Cl          2.8010445    -0.4729749     2.3745199
C           3.5783762     0.3379740    -0.2095550
N           4.7791218     0.6751819    -0.7979284
H           4.7980815     1.1204576    -1.7056522
C           5.8166356     0.4916739     0.0635899
H           6.8362932     0.6953012    -0.2295957
C           5.3031034     0.0260165     1.2590009
H           5.8541035    -0.2161317     2.1560512
O           2.4549021     1.5921005    -1.8234898
20
288_C7H9ClN2O_12-0-1-2 (0,) energy =    -917.0810753
C           2.5007295    -0.8688101     0.2061923
N           1.2923540    -0.8829790    -0.4359258
C           0.8088168     0.1211956    -1.3683162
H           1.6363701     0.7177861    -1.7485050
H           0.0708995     0.7884374    -0.9068828
H           0.3328020    -0.3871372    -2.2161249
C           0.3507633    -1.9476941    -0.1149357
H           0.1050743    -2.5209365    -1.0181522
H           0.8080037    -2.6080949     0.6196980
H          -0.5787766    -1.5265169     0.2902079
C           3.4914927     1.6375077    -0.0546746
Cl          2.1417872     2.7302852     0.0904480
C           3.4679563     0.2436478    -0.0163256
N           4.7916090    -0.1443437    -0.0281852
H           5.0457141    -1.1100775     0.1299407
C           5.6198942     0.9342383    -0.0909510
H           6.6936163     0.8195292    -0.1235813
C           4.8381922     2.0727153    -0.1126643
H           5.1774799     3.0974587    -0.1536490
O           2.8850550    -1.8183778     0.9003631
20
288_C7H9ClN2O_12-0-1-2 (15,) energy =    -917.0823244
C           2.5337931    -0.9286159     0.1534914
N           1.2753580    -0.8562531    -0.3771697
C           0.8358998     0.0913871    -1.3890345
H           1.6766891     0.6811308    -1.7501127
H           0.0671159     0.7697941    -1.0016548
H           0.4133648    -0.4625989    -2.2380567
C           0.3339755    -1.9229854    -0.0649252
H           0.2034386    -2.5957991    -0.9239034
H           0.7164685    -2.4974381     0.7771955
H          -0.6414223    -1.4903535     0.1876144
C           3.5078834     1.5854929    -0.0145250
Cl          2.1464795     2.6561888     0.1716067
C           3.4958171     0.1910249    -0.0314497
N           4.8216975    -0.1864610    -0.0715775
H           5.0818309    -1.1567396     0.0446397
C           5.6409301     0.9000649    -0.0940221
H           6.7153447     0.7959508    -0.1382553
C           4.8504097     2.0330608    -0.0637093
H           5.1823277     3.0610341    -0.0670895
O           2.9344454    -1.9297173     0.7605907
20
288_C7H9ClN2O_12-0-1-2 (30,) energy =    -917.0827056
C           2.5200688    -0.8862908     0.0824509
N           1.2193786    -0.7465256    -0.3274062
C           0.7954001     0.1181345    -1.4210692
H           1.6248755     0.7332671    -1.7651616
H          -0.0254407     0.7744683    -1.1120751
H           0.4500212    -0.4987627    -2.2630218
C           0.2989166    -1.8292064    -0.0041486
H           0.2585620    -2.5785641    -0.8078636
H           0.6284617    -2.3214081     0.9099650
H          -0.7046359    -1.4134213     0.1364030
C           3.4595417     1.6384353    -0.0085730
Cl          2.0790303     2.6787502     0.1982749
C           3.4698135     0.2446841    -0.0655849
N           4.8006742    -0.1115595    -0.1250485
H           5.0750252    -1.0818812    -0.0464211
C           5.6022632     0.9875583    -0.1162847
H           6.6780975     0.9016761    -0.1652024
C           4.7944114     2.1075499    -0.0483181
H           5.1112083     3.1399569    -0.0216424
O           2.9386709    -1.9288833     0.5992256
20
288_C7H9ClN2O_12-0-1-2 (45,) energy =    -917.0819936
C           2.5429558    -0.8428452     0.0076203
N           1.2071697    -0.6539635    -0.2737070
C           0.7707017     0.1100330    -1.4406922
H           1.5594687     0.7823650    -1.7743818
H          -0.1168320     0.7049299    -1.2017093
H           0.5227686    -0.5731084    -2.2668225
C           0.3201251    -1.7598235     0.0737863
H           0.3280645    -2.5496765    -0.6914373
H           0.6372296    -2.1976852     1.0200717
H          -0.6991275    -1.3719891     0.1692672
C           3.4247537     1.6982453     0.0097148
Cl          2.0166693     2.6964723     0.2274610
C           3.4706701     0.3070221    -0.0871249
N           4.8097665    -0.0143298    -0.1597595
H           5.1066945    -0.9805399    -0.1216049
C           5.5831903     1.1032537    -0.1155240
H           6.6610324     1.0464604    -0.1632542
C           4.7472288     2.2007238    -0.0137952
H           5.0388505     3.2392257     0.0446267
O           2.9867373    -1.9205737     0.4167043
20
288_C7H9ClN2O_12-0-1-2 (60,) energy =    -917.0797600
C           2.5490869    -0.8466359    -0.0995752
N           1.1926501    -0.5908233    -0.2557321
C           0.7415436     0.0675506    -1.4855947
H           1.4830106     0.7905222    -1.8255007
H          -0.1984729     0.5975165    -1.3030008
H           0.5795069    -0.6726974    -2.2841432
C           0.3181394    -1.6956449     0.1370034
H           0.3137125    -2.5089376    -0.6032440
H           0.6513883    -2.1051174     1.0911466
H          -0.6995384    -1.3067125     0.2422276
C           3.4307016     1.6850051     0.0281985
Cl          2.0162898     2.6752564     0.2284995
C           3.4816851     0.2971002    -0.1126724
N           4.8226184    -0.0200134    -0.1766949
H           5.1195564    -0.9870013    -0.1846958
C           5.5920726     1.0955970    -0.0766898
H           6.6708822     1.0420700    -0.1019561
C           4.7519849     2.1886069     0.0483845
H           5.0412988     3.2245294     0.1488659
O           2.9886609    -1.9643306     0.1813408
20
288_C7H9ClN2O_12-0-1-2 (75,) energy =    -917.0757867
C           2.5457336    -0.8368022    -0.2219022
N           1.1776847    -0.5254627    -0.2602499
C           0.6907178     0.0103573    -1.5396012
H           1.3739853     0.7748953    -1.9145823
H          -0.2902075     0.4722226    -1.3918927
H           0.5980892    -0.7853670    -2.2952010
C           0.3279018    -1.6250726     0.2084623
H           0.3018871    -2.4711363    -0.4932604
H           0.6962908    -1.9891613     1.1690173
H          -0.6874897    -1.2371586     0.3366527
C           3.4430600     1.6688796     0.0542498
Cl          2.0296028     2.6641351     0.2167846
C           3.4912266     0.2852688    -0.1312735
N           4.8319946    -0.0384805    -0.1732233
H           5.1248450    -1.0046084    -0.2368961
C           5.6032776     1.0674352    -0.0107433
H           6.6820982     1.0080083    -0.0024565
C           4.7654421     2.1614197     0.1307581
H           5.0585350     3.1907548     0.2772939
O           2.9685928    -1.9861751    -0.0921963
20
288_C7H9ClN2O_12-0-1-2 (90,) energy =    -917.0705518
C           2.5490149    -0.7887636    -0.3488695
N           1.1715583    -0.4473173    -0.3006796
C           0.6327702    -0.0719341    -1.6179186
H           1.2504090     0.7115292    -2.0661796
H          -0.3790391     0.3250431    -1.4910032
H           0.5944710    -0.9328055    -2.3043951
C           0.3619362    -1.5254976     0.2847173
H           0.3125880    -2.4214371    -0.3505289
H           0.7786482    -1.8123396     1.2529000
H          -0.6509097    -1.1396692     0.4376907
C           3.4508792     1.6775725     0.1086497
Cl          2.0379300     2.6739266     0.2439395
C           3.5012171     0.3037654    -0.1448561
N           4.8426154    -0.0240140    -0.1651375
H           5.1364481    -0.9835785    -0.2913619
C           5.6103581     1.0679139     0.0793250
H           6.6882927     1.0045152     0.1206774
C           4.7711155     2.1578135     0.2516057
H           5.0639018     3.1768687     0.4581698
O           2.9555507    -1.9485740    -0.3835393
20
288_C7H9ClN2O_12-0-1-2 (105,) energy =    -917.0658287
C           2.5451868    -0.7396523    -0.4806735
N           1.1585841    -0.3795760    -0.3875395
C           0.5756221    -0.2066120    -1.7270991
H           1.1410475     0.5487401    -2.2825273
H          -0.4532427     0.1513723    -1.6206961
H           0.5702683    -1.1438082    -2.3072138
C           0.4069381    -1.3937944     0.3674523
H           0.3712594    -2.3715390    -0.1354110
H           0.8603252    -1.5252427     1.3541317
H          -0.6146705    -1.0254691     0.5055198
C           3.4606242     1.6598196     0.2077946
Cl          2.0584212     2.6538582     0.4220063
C           3.5040027     0.3112105    -0.1654176
N           4.8453980    -0.0207307    -0.2133808
H           5.1371828    -0.9612628    -0.4439118
C           5.6169264     1.0421235     0.1218887
H           6.6949051     0.9720647     0.1530575
C           4.7828335     2.1177891     0.3902397
H           5.0818491     3.1136525     0.6829662
O           2.9346155    -1.8816639    -0.7062821
20
288_C7H9ClN2O_12-0-1-2 (120,) energy =    -917.0690478
C           2.6778901    -0.8878733    -0.9675623
N           1.2991449    -0.9711600    -0.8325472
C           0.4709001    -0.7570764    -2.0116833
H           1.0745923    -0.9169882    -2.9061480
H           0.0641732     0.2651747    -2.0164489
H          -0.3687464    -1.4632553    -2.0315828
C           0.6230037    -0.7895282     0.4429464
H          -0.0541663    -1.6376385     0.6141709
H           1.3532920    -0.7681236     1.2545592
H           0.0328690     0.1340966     0.4795340
C           3.2807855     1.3519546     0.3987913
Cl          1.8071354     2.2665027     0.5302704
C           3.4648288     0.1038533    -0.2009891
N           4.8230929    -0.1370907    -0.1328210
H           5.2234120    -0.9367259    -0.6056740
C           5.4744371     0.8914031     0.4691805
H           6.5461119     0.8802104     0.6066743
C           4.5364252     1.8456285     0.8217749
H           4.7198219     2.7905454     1.3120571
O           3.2757371    -1.5464035    -1.8224115
20
288_C7H9ClN2O_12-0-1-2 (135,) energy =    -917.0748967
C           2.6577718    -0.7838181    -1.0248933
N           1.2934128    -0.8494552    -0.8442250
C           0.4253475    -0.8723194    -2.0120286
H           1.0384679    -0.9772194    -2.9071538
H          -0.1557046     0.0592116    -2.0629487
H          -0.2773963    -1.7151139    -1.9710858
C           0.6297703    -0.6753529     0.4363951
H           0.0050387    -1.5558960     0.6418550
H           1.3695271    -0.5864962     1.2333573
H          -0.0119634     0.2135792     0.4522844
C           3.3404712     1.3710900     0.4382079
Cl          1.8966342     2.3254919     0.6167492
C           3.4800789     0.1456474    -0.2157999
N           4.8289877    -0.1430788    -0.1686233
H           5.2007126    -0.9304325    -0.6834322
C           5.5182036     0.8367680     0.4732650
H           6.5895537     0.7832693     0.6025816
C           4.6147361     1.8043627     0.8740671
H           4.8318455     2.7198575     1.4047659
O           3.2227221    -1.4007471    -1.9342227
20
288_C7H9ClN2O_12-0-1-2 (150,) energy =    -917.0795929
C           2.6268066    -0.6346129    -1.0516502
N           1.2713255    -0.6832217    -0.8441933
C           0.3962253    -0.9547100    -1.9740703
H           0.9903421    -0.9660314    -2.8872756
H          -0.3724355    -0.1735255    -2.0348675
H          -0.1068694    -1.9266128    -1.8733702
C           0.6230008    -0.5425949     0.4482522
H           0.0628754    -1.4607605     0.6757059
H           1.3686687    -0.3924716     1.2290461
H          -0.0762690     0.3014096     0.4624981
C           3.3711576     1.4381952     0.4981896
Cl          1.9544340     2.4268063     0.7087851
C           3.4750262     0.2365531    -0.2035014
N           4.8134958    -0.0955089    -0.1672604
H           5.1627951    -0.8711932    -0.7143802
C           5.5308890     0.8346914     0.5177423
H           6.5992019     0.7406915     0.6486997
C           4.6569203     1.8126196     0.9559818
H           4.9004946     2.6974149     1.5258334
O           3.1701250    -1.2284419    -1.9903540
20
288_C7H9ClN2O_12-0-1-2 (165,) energy =    -917.0823188
C           2.5849833    -0.5023345    -1.0839949
N           1.2338389    -0.5469660    -0.8606923
C           0.3832816    -1.0583223    -1.9261699
H           0.9103242    -0.9739958    -2.8757246
H          -0.5425325    -0.4724769    -1.9576078
H           0.1218609    -2.1141221    -1.7654213
C           0.6079867    -0.4399537     0.4486153
H           0.1149525    -1.3908500     0.6962673
H           1.3572960    -0.2330550     1.2113824
H          -0.1443550     0.3563424     0.4686446
C           3.3897864     1.4743798     0.5614474
Cl          2.0063156     2.5036026     0.8001990
C           3.4555848     0.3018829    -0.1915134
N           4.7801348    -0.0806048    -0.1618488
H           5.1057964    -0.8432153    -0.7409284
C           5.5248670     0.7902570     0.5713077
H           6.5869820     0.6477702     0.7084122
C           4.6841246     1.7797024     1.0464519
H           4.9547493     2.6272852     1.6590817
O           3.1140294    -1.0772629    -2.0427793
20
288_C7H9ClN2O_12-0-1-2 (180,) energy =    -917.0823669
C           2.5621510    -0.4060139    -1.1653474
N           1.2158619    -0.4836134    -0.9200575
C           0.4083224    -1.2082799    -1.8947387
H           0.8550549    -1.1049613    -2.8825313
H          -0.6050299    -0.7933588    -1.8986965
H           0.3497301    -2.2780788    -1.6477200
C           0.6171823    -0.3755587     0.4052169
H           0.1719915    -1.3409765     0.6837933
H           1.3705444    -0.1207439     1.1477116
H          -0.1688170     0.3872470     0.4240496
C           3.4390985     1.4504954     0.5865702
Cl          2.1023655     2.5317235     0.8634853
C           3.4562557     0.3141172    -0.2221952
N           4.7629588    -0.1261547    -0.2098440
H           5.0586586    -0.8683243    -0.8300621
C           5.5410228     0.6714403     0.5709895
H           6.5938516     0.4718836     0.7084227
C           4.7424016     1.6718904     1.0928239
H           5.0460895     2.4730980     1.7506846
O           3.0807660    -0.9441351    -2.1510175
