30
114_C15H12N2O_0-6-7-18 (-165,) energy =    -763.5560626
C          -0.2380929    -1.0742355    -0.4909020
H          -0.2130221    -1.9749151    -1.0939744
C          -1.4457447    -0.5467727    -0.0464706
H          -2.3766964    -1.0477392    -0.2985124
C          -1.4652624     0.6234906     0.7187271
H          -2.4093406     1.0358167     1.0648990
C           0.9817666    -0.4524527    -0.1684447
C           2.2545245    -1.0180004    -0.7191558
C          -0.2652719     1.2622124     1.0277758
H          -0.2686809     2.1817656     1.6069418
C           5.9516015     0.3419593     1.0315510
H           6.8745459     0.7119284     1.4691873
C           4.8955994    -0.0696415     1.8507100
H           4.9904922    -0.0324999     2.9317404
C           0.9479609     0.7313512     0.5863093
H           1.8691455     1.2560914     0.8150398
C           3.7161394    -0.5191927     1.2693185
H           2.8863662    -0.8214663     1.9004749
C           3.5561516    -0.5897294    -0.1274695
C           4.6547949    -0.2286241    -0.9418992
N           4.5958204    -0.3014463    -2.3451576
H           5.2258593     0.2995504    -2.8652994
C           5.8329645     0.2559390    -0.3494726
H           6.6630279     0.5445296    -0.9896789
C           4.1168537    -1.3634525    -3.1042771
O           4.3179711    -1.4219787    -4.3019457
N           2.1445889    -1.8242776    -1.7163967
C           3.3403779    -2.4053828    -2.3006027
H           3.0551453    -3.1971840    -2.9946934
H           4.0147035    -2.8272773    -1.5366340
30
114_C15H12N2O_0-6-7-18 (-150,) energy =    -763.5565655
C           0.2875903    -1.1219671     1.2304941
H           0.6598283    -1.9872134     1.7684278
C          -0.9823107    -0.6129614     1.4875574
H          -1.6058232    -1.0783162     2.2463474
C          -1.4545820     0.4928132     0.7747904
H          -2.4464805     0.8890728     0.9753857
C           1.1136413    -0.5285686     0.2616425
C           2.4585142    -1.1215446    -0.0165928
C          -0.6466956     1.0849863    -0.1964245
H          -1.0100264     1.9381722    -0.7630409
C           5.5217583     1.5885871    -1.3737542
H           6.2771672     2.2810127    -1.7345643
C           4.6700657     1.9540502    -0.3263381
H           4.7596333     2.9299213     0.1412459
C           0.6301360     0.5818749    -0.4481805
H           1.2472663     1.0439693    -1.2123941
C           3.6972069     1.0610205     0.1051155
H           3.0176414     1.3478974     0.9011688
C           3.5551889    -0.2172690    -0.4675767
C           4.4546987    -0.5907947    -1.4942164
N           4.3896091    -1.8455640    -2.1239786
H           4.7689713    -1.9104697    -3.0622456
C           5.4165696     0.3281752    -1.9468689
H           6.0917839     0.0314802    -2.7457548
C           4.2344012    -3.0871043    -1.5191060
O           4.3867375    -4.1169608    -2.1476781
N           2.5763060    -2.3906216     0.1625086
C           3.8712018    -3.0203146    -0.0377258
H           3.8323643    -4.0474383     0.3277200
H           4.6759930    -2.4840481     0.4924798
30
114_C15H12N2O_0-6-7-18 (-135,) energy =    -763.5556047
C           0.3817241    -0.9884880     1.3355108
H           0.8154339    -1.7617944     1.9613352
C          -0.8647662    -0.4430144     1.6367514
H          -1.4038713    -0.7828755     2.5170450
C          -1.4191387     0.5385287     0.8116542
H          -2.3923542     0.9618754     1.0455592
C           1.0939010    -0.5563736     0.2067936
C           2.4303251    -1.1570081    -0.0965883
C          -0.7171151     0.9765418    -0.3129416
H          -1.1449357     1.7363291    -0.9615425
C           5.5270369     1.6048423    -1.2541417
H           6.2927845     2.3109262    -1.5629611
C           4.6195459     1.9424341    -0.2448584
H           4.6742286     2.9105857     0.2436504
C           0.5370580     0.4419325    -0.6069043
H           1.0821517     0.7894767    -1.4799242
C           3.6355303     1.0324533     0.1198941
H           2.9121404     1.2979178     0.8839334
C           3.5386773    -0.2377833    -0.4796937
C           4.4861419    -0.5795692    -1.4744315
N           4.4542902    -1.8129258    -2.1468078
H           4.8760600    -1.8466018    -3.0684325
C           5.4609505     0.3566412    -1.8588975
H           6.1747189     0.0843255    -2.6325708
C           4.2557783    -3.0750241    -1.6008957
O           4.4264001    -4.0802907    -2.2640151
N           2.5314544    -2.4312697     0.0467114
C           3.8280136    -3.0662673    -0.1361779
H           3.7652577    -4.1075526     0.1828324
H           4.6140651    -2.5617467     0.4502534
30
114_C15H12N2O_0-6-7-18 (-120,) energy =    -763.5535531
C           0.4900245    -0.8267004     1.4165268
H           0.9946877    -1.4848997     2.1173328
C          -0.7347707    -0.2457106     1.7455508
H          -1.1804681    -0.4395760     2.7175772
C          -1.3860112     0.5822139     0.8291330
H          -2.3420355     1.0317265     1.0840186
C           1.0774316    -0.5850696     0.1673747
C           2.4097818    -1.1910026    -0.1565518
C          -0.8029654     0.8349536    -0.4146954
H          -1.3060306     1.4778539    -1.1320691
C           5.5304932     1.6123282    -1.1320735
H           6.3032141     2.3296342    -1.3941126
C           4.5846395     1.9194219    -0.1485815
H           4.6153550     2.8754751     0.3651563
C           0.4297111     0.2683803    -0.7372971
H           0.8883455     0.4772397    -1.7001328
C           3.5930814     0.9959661     0.1563723
H           2.8391388     1.2382267     0.8981912
C           3.5274184    -0.2601246    -0.4763360
C           4.5075118    -0.5682946    -1.4508217
N           4.4978517    -1.7757029    -2.1690301
H           4.9505742    -1.7742634    -3.0764617
C           5.4913171     0.3816105    -1.7738159
H           6.2313238     0.1349860    -2.5313180
C           4.2669878    -3.0574395    -1.6860264
O           4.4509019    -4.0332660    -2.3886016
N           2.4955792    -2.4694259    -0.0590825
C           3.7912511    -3.1104596    -0.2378454
H           3.7085284    -4.1643514     0.0311426
H           4.5624704    -2.6417968     0.3958379
30
114_C15H12N2O_0-6-7-18 (-105,) energy =    -763.5511731
C           0.6090805    -0.6143885     1.4755583
H           1.1982263    -1.1169488     2.2376520
C          -0.6073960    -0.0154367     1.8070771
H          -0.9580119    -0.0397549     2.8354689
C          -1.3723255     0.6088096     0.8204618
H          -2.3216623     1.0709516     1.0775772
C           1.0714673    -0.5946309     0.1536899
C           2.4017108    -1.2068649    -0.1860455
C          -0.9127066     0.6394913    -0.4980784
H          -1.5044995     1.1233176    -1.2705687
C           5.5557217     1.6083755    -1.0092065
H           6.3374288     2.3290823    -1.2323235
C           4.5941352     1.8874091    -0.0327394
H           4.6200314     2.8256174     0.5131514
C           0.3102831     0.0549967    -0.8268356
H           0.6726815     0.0911519    -1.8508640
C           3.5923858     0.9602476     0.2229053
H           2.8251661     1.1837890     0.9568655
C           3.5316426    -0.2743031    -0.4515455
C           4.5226295    -0.5514226    -1.4249596
N           4.5114703    -1.7245581    -2.1978797
H           4.9784572    -1.6850266    -3.0971931
C           5.5182677     0.4024029    -1.6962048
H           6.2674752     0.1790927    -2.4519070
C           4.2522093    -3.0248801    -1.7851894
O           4.4315868    -3.9679378    -2.5325287
N           2.4645055    -2.4885176    -0.1545929
C           3.7524379    -3.1428255    -0.3497901
H           3.6471506    -4.2071612    -0.1355940
H           4.5205249    -2.7203319     0.3187385
30
114_C15H12N2O_0-6-7-18 (-90,) energy =    -763.5492888
C           0.7226940    -0.3521749     1.4886826
H           1.3991986    -0.6520917     2.2850293
C          -0.5072454     0.2299163     1.8006607
H          -0.7770046     0.3945574     2.8405028
C          -1.3895864     0.5914730     0.7815769
H          -2.3481557     1.0419410     1.0245489
C           1.0814132    -0.5797753     0.1539810
C           2.4123470    -1.1958277    -0.1895446
C          -1.0370025     0.3684224    -0.5508852
H          -1.7215360     0.6429650    -1.3490804
C           5.6251113     1.5934070    -0.8855989
H           6.4214922     2.3068860    -1.0777792
C           4.6715950     1.8461951     0.1054227
H           4.7165336     2.7580317     0.6931781
C           0.1951056    -0.2066282    -0.8635611
H           0.4685598    -0.3780700    -1.9011737
C           3.6517877     0.9289423     0.3215714
H           2.8900973     1.1407845     1.0639832
C           3.5623990    -0.2734773    -0.4061933
C           4.5423113    -0.5213682    -1.3997375
N           4.5026288    -1.6478764    -2.2388270
H           4.9683710    -1.5649276    -3.1358323
C           5.5576140     0.4230638    -1.6287941
H           6.2977836     0.2203162    -2.3990630
C           4.2157153    -2.9641688    -1.9042368
O           4.3727677    -3.8652755    -2.7064507
N           2.4416596    -2.4768687    -0.2494207
C           3.7127923    -3.1529305    -0.4786510
H           3.5784809    -4.2244866    -0.3255785
H           4.4899039    -2.7893875     0.2133479
30
114_C15H12N2O_0-6-7-18 (-75,) energy =    -763.5481070
C           0.7855215    -0.0693362     1.4534805
H           1.5221066    -0.1571610     2.2478497
C          -0.4672011     0.4785233     1.7346603
H          -0.6838078     0.8371912     2.7374263
C          -1.4395048     0.5559076     0.7368588
H          -2.4135111     0.9848563     0.9561295
C           1.0788570    -0.5524577     0.1709519
C           2.4131407    -1.1642501    -0.1682649
C          -1.1574045     0.0693036    -0.5408606
H          -1.9125524     0.1157918    -1.3210052
C           5.7156415     1.5549606    -0.7675249
H           6.5339937     2.2486513    -0.9383930
C           4.7853315     1.7908913     0.2486141
H           4.8680690     2.6717029     0.8781024
C           0.0924623    -0.4824673    -0.8214489
H           0.3087957    -0.8704918    -1.8125693
C           3.7380570     0.8991502     0.4380662
H           2.9977870     1.1123275     1.1991328
C           3.5927495    -0.2655450    -0.3407602
C           4.5481722    -0.4930788    -1.3647668
N           4.4599222    -1.5677599    -2.2668772
H           4.9156139    -1.4452731    -3.1645182
C           5.5929865     0.4259198    -1.5643533
H           6.3123672     0.2347545    -2.3569391
C           4.1504147    -2.8939049    -2.0008259
O           4.2777322    -3.7544762    -2.8512212
N           2.4074460    -2.4390480    -0.3180665
C           3.6561027    -3.1406913    -0.5822541
H           3.4902830    -4.2138986    -0.4797516
H           4.4483560    -2.8336291     0.1198080
30
114_C15H12N2O_0-6-7-18 (-60,) energy =    -763.5466469
C           0.8027628     0.1883616     1.3450371
H           1.5504576     0.3141100     2.1206015
C          -0.4786346     0.6961121     1.5663080
H          -0.6856031     1.2436339     2.4819946
C          -1.4892636     0.4954256     0.6264879
H          -2.4836007     0.8989665     0.7974263
C           1.0924342    -0.5435005     0.1842509
C           2.4395014    -1.1352816    -0.1406332
C          -1.2156119    -0.2388900    -0.5287206
H          -1.9969187    -0.4121029    -1.2639829
C           5.8129534     1.5221496    -0.6816583
H           6.6446047     2.2013844    -0.8458139
C           4.9599831     1.6936764     0.4113936
H           5.1187342     2.5076188     1.1123110
C           0.0600530    -0.7567578    -0.7434255
H           0.2719584    -1.3377833    -1.6351076
C           3.8925006     0.8237688     0.5927901
H           3.2274997     0.9933212     1.4276646
C           3.6442537    -0.2566458    -0.2752338
C           4.5349515    -0.4293958    -1.3674952
N           4.3690167    -1.4371288    -2.3355553
H           4.7790019    -1.2627748    -3.2466283
C           5.5988324     0.4689823    -1.5583269
H           6.2632746     0.3181449    -2.4056801
C           4.0874409    -2.7798181    -2.1236739
O           4.1772305    -3.5956732    -3.0210959
N           2.4236299    -2.4000488    -0.3691897
C           3.6594218    -3.0936740    -0.6961308
H           3.4945801    -4.1700581    -0.6327818
H           4.4810474    -2.8162292    -0.0157474
30
114_C15H12N2O_0-6-7-18 (-45,) energy =    -763.5467358
C           0.8212668     0.5001527     1.0847999
H           1.6156019     0.9309138     1.6799466
C          -0.4748830     0.9843685     1.2670806
H          -0.6532790     1.7665140     2.0002136
C          -1.5331378     0.4704476     0.5188617
H          -2.5400437     0.8549677     0.6574692
C           1.0856708    -0.5158576     0.1533905
C           2.4336807    -1.1406986    -0.0857247
C          -1.2857345    -0.5415895    -0.4107880
H          -2.0998994    -0.9504845    -1.0032600
C           5.8416811     1.4687201    -0.5816689
H           6.6716513     2.1512240    -0.7406593
C           5.1319933     1.4838730     0.6219122
H           5.4135278     2.1660574     1.4184019
C           0.0049022    -1.0334387    -0.5841552
H           0.1987908    -1.8296655    -1.2937873
C           4.0574037     0.6191366     0.7962907
H           3.5302250     0.6251164     1.7427254
C           3.6595981    -0.2856663    -0.2044643
C           4.4471114    -0.3525119    -1.3792002
N           4.1879401    -1.2940393    -2.3939008
H           4.5169611    -1.0694874    -3.3266579
C           5.5095218     0.5468090    -1.5653041
H           6.0893761     0.4916177    -2.4834533
C           3.9664369    -2.6557144    -2.2160032
O           4.0091528    -3.4312517    -3.1513703
N           2.4184619    -2.3970187    -0.3584576
C           3.6509309    -3.0472894    -0.7724173
H           3.5177563    -4.1295476    -0.7496475
H           4.5092768    -2.7768396    -0.1362495
30
114_C15H12N2O_0-6-7-18 (-30,) energy =    -763.5487769
C           0.8504201     0.6682218     0.8423956
H           1.6885729     1.2358711     1.2244971
C          -0.4370207     1.1610679     1.0621788
H          -0.5673456     2.0778052     1.6311077
C          -1.5467329     0.4878646     0.5546929
H          -2.5478077     0.8764208     0.7216595
C           1.0559147    -0.5125775     0.1108466
C           2.3995207    -1.1449232    -0.1246247
C          -1.3581249    -0.6871729    -0.1774474
H          -2.2134997    -1.2185739    -0.5862521
C           5.8540064     1.4254259    -0.4498230
H           6.6983814     2.0995319    -0.5620972
C           5.1298326     1.3903442     0.7447869
H           5.4154238     2.0223645     1.5802947
C          -0.0763611    -1.1837666    -0.3896495
H           0.0747087    -2.1014415    -0.9457955
C           4.0365109     0.5381747     0.8589911
H           3.4911592     0.5003256     1.7957637
C           3.6347260    -0.2992808    -0.1974351
C           4.4412244    -0.3277458    -1.3589345
N           4.1864828    -1.2305053    -2.4093706
H           4.5322123    -0.9799475    -3.3294056
C           5.5212200     0.5605931    -1.4846362
H           6.1163717     0.5394994    -2.3943547
C           3.9617433    -2.5970971    -2.2728323
O           4.0175092    -3.3460668    -3.2287369
N           2.3911155    -2.3956540    -0.4250493
C           3.6270724    -3.0328791    -0.8445970
H           3.4935488    -4.1152867    -0.8591510
H           4.4787817    -2.7850733    -0.1903463
30
114_C15H12N2O_0-6-7-18 (-15,) energy =    -763.5513742
C           0.8719549     0.7635450     0.6009941
H           1.7279326     1.4020756     0.7791865
C          -0.4022828     1.2706006     0.8638779
H          -0.5039309     2.2738258     1.2692039
C          -1.5345677     0.5014607     0.6045308
H          -2.5258469     0.8981151     0.8072219
C           1.0403931    -0.5252524     0.0689986
C           2.3785012    -1.1557661    -0.1936965
C          -1.3826182    -0.7828714     0.0734293
H          -2.2575411    -1.3912977    -0.1400382
C           5.8658052     1.3841939    -0.3195357
H           6.7235133     2.0484140    -0.3762811
C           5.0872472     1.3309070     0.8400120
H           5.3415664     1.9399895     1.7022507
C          -0.1146070    -1.2907561    -0.1844233
H           0.0104850    -2.2890286    -0.5868725
C           3.9789846     0.4916571     0.8823945
H           3.3791830     0.4460721     1.7856150
C           3.6176608    -0.3159403    -0.2116748
C           4.4716319    -0.3233988    -1.3384761
N           4.2480500    -1.1894337    -2.4258589
H           4.6322688    -0.9151353    -3.3235764
C           5.5676062     0.5528276    -1.3917214
H           6.2015277     0.5489873    -2.2750781
C           3.9994955    -2.5560475    -2.3415220
O           4.0796591    -3.2759368    -3.3177453
N           2.3716602    -2.3968832    -0.5334082
C           3.6117613    -3.0321855    -0.9398605
H           3.4675974    -4.1120037    -0.9947618
H           4.4457847    -2.8168836    -0.2518100
30
114_C15H12N2O_0-6-7-18 (0,) energy =    -763.5539106
C           0.8816229     0.8113267     0.3716141
H           1.7331042     1.4812825     0.3626027
C          -0.3790841     1.3310739     0.6725091
H          -0.4770110     2.3851608     0.9182163
C          -1.5033277     0.5082712     0.6526442
H          -2.4839341     0.9132188     0.8882579
C           1.0411580    -0.5433259     0.0374683
C           2.3704945    -1.1667444    -0.2715153
C          -1.3587671    -0.8427827     0.3218166
H          -2.2283246    -1.4944493     0.3003167
C           5.8737305     1.3493830    -0.1974996
H           6.7396529     2.0053846    -0.1990482
C           5.0321498     1.2908552     0.9173495
H           5.2425190     1.8899612     1.7981923
C          -0.1045837    -1.3619457     0.0226557
H           0.0168500    -2.4088944    -0.2299472
C           3.9164555     0.4617465     0.8884938
H           3.2574225     0.4205769     1.7499563
C           3.6115032    -0.3339537    -0.2315805
C           4.5178276    -0.3265989    -1.3168803
N           4.3345826    -1.1557929    -2.4391895
H           4.7636606    -0.8594283    -3.3091293
C           5.6234373     0.5393741    -1.2977565
H           6.3000696     0.5468137    -2.1487866
C           4.0514407    -2.5176098    -2.4157135
O           4.1581557    -3.2027175    -3.4142342
N           2.3565780    -2.3943944    -0.6580036
C           3.5982364    -3.0354028    -1.0498655
H           3.4366750    -4.1094489    -1.1512774
H           4.4099842    -2.8632809    -0.3236903
30
114_C15H12N2O_0-6-7-18 (15,) energy =    -763.5558443
C           0.8673859     0.8290570     0.1583805
H           1.6954915     1.5053640    -0.0227557
C          -0.3814746     1.3573508     0.4904079
H          -0.5006551     2.4337488     0.5809381
C          -1.4696024     0.5113914     0.6992243
H          -2.4405051     0.9229261     0.9620793
C           1.0469344    -0.5568206     0.0206520
C           2.3630378    -1.1715760    -0.3449570
C          -1.3031827    -0.8705824     0.5654801
H          -2.1454107    -1.5383763     0.7264183
C           5.8728907     1.3186463    -0.0845595
H           6.7432199     1.9669602    -0.0351482
C           4.9724827     1.2604926     0.9837822
H           5.1391195     1.8545433     1.8772961
C          -0.0608520    -1.3982649     0.2308055
H           0.0782049    -2.4679964     0.1221601
C           3.8539098     0.4411005     0.8898957
H           3.1426780     0.4064756     1.7091003
C           3.6058380    -0.3498522    -0.2478311
C           4.5598703    -0.3307368    -1.2918627
N           4.4158012    -1.1227071    -2.4452684
H           4.8874237    -0.8058113    -3.2853892
C           5.6708809     0.5248658    -1.2060638
H           6.3865554     0.5405558    -2.0244201
C           4.0895596    -2.4738117    -2.4898195
O           4.2152660    -3.1197797    -3.5121209
N           2.3337178    -2.3829751    -0.7794776
C           3.5728720    -3.0340853    -1.1653538
H           3.3900897    -4.0986668    -1.3179810
H           4.3628337    -2.9134081    -0.4052568
30
114_C15H12N2O_0-6-7-18 (30,) energy =    -763.5565841
C           0.8180342     0.8284268    -0.0422147
H           1.6063818     1.4927572    -0.3816507
C          -0.4229975     1.3583567     0.3128829
H          -0.5859975     2.4311466     0.2537381
C          -1.4507348     0.5152036     0.7359996
H          -2.4152762     0.9287662     1.0183219
C           1.0468887    -0.5555804     0.0139484
C           2.3472516    -1.1627007    -0.4088577
C          -1.2341094    -0.8645955     0.7929108
H          -2.0300678    -1.5275542     1.1215483
C           5.8656352     1.2860487     0.0315027
H           6.7397988     1.9235936     0.1295152
C           4.9116709     1.2323050     1.0527792
H           5.0386122     1.8209729     1.9562703
C           0.0004441    -1.3954060     0.4306368
H           0.1761782    -2.4653048     0.4590131
C           3.7905378     0.4265430     0.8974932
H           3.0347798     0.3985719     1.6758930
C           3.5940986    -0.3592358    -0.2539985
C           4.5920143    -0.3326732    -1.2568545
N           4.4844089    -1.0883585    -2.4371457
H           4.9940194    -0.7534818    -3.2475067
C           5.7081683     0.5077980    -1.1076921
H           6.4595983     0.5280515    -1.8932322
C           4.1077100    -2.4212444    -2.5525121
O           4.2441742    -3.0256624    -3.5988600
N           2.2972612    -2.3569370    -0.8861408
C           3.5308453    -3.0215716    -1.2726660
H           3.3241623    -4.0727075    -1.4786710
H           4.2984753    -2.9578200    -0.4833407
30
114_C15H12N2O_0-6-7-18 (45,) energy =    -763.5558244
C           0.7437906     0.8051957    -0.2474667
H           1.4737924     1.4366950    -0.7457549
C          -0.4895103     1.3351799     0.1314208
H          -0.7145079     2.3779314    -0.0759334
C          -1.4329058     0.5273898     0.7688098
H          -2.3912841     0.9419986     1.0700133
C           1.0469181    -0.5421985     0.0014722
C           2.3281280    -1.1514263    -0.4739158
C          -1.1421795    -0.8169281     1.0147287
H          -1.8740861    -1.4510917     1.5078853
C           5.8781947     1.2141179     0.1231835
H           6.7620746     1.8300747     0.2633799
C           4.8831130     1.1712796     1.1050828
H           4.9861147     1.7486266     2.0188668
C           0.0837810    -1.3508040     0.6236760
H           0.3113287    -2.3988006     0.7892041
C           3.7518282     0.3928077     0.8960156
H           2.9637896     0.3753403     1.6419526
C           3.5862970    -0.3801179    -0.2690490
C           4.6175961    -0.3545133    -1.2383221
N           4.5295031    -1.0713647    -2.4434988
H           5.0724418    -0.7240007    -3.2264294
C           5.7462613     0.4571145    -1.0334342
H           6.5250858     0.4754231    -1.7919029
C           4.0973629    -2.3789686    -2.6268415
O           4.2344507    -2.9414820    -3.6965158
N           2.2474897    -2.3266450    -0.9904776
C           3.4672389    -3.0123892    -1.3897551
H           3.2294370    -4.0453101    -1.6476656
H           4.2173132    -3.0117277    -0.5812510
30
114_C15H12N2O_0-6-7-18 (60,) energy =    -763.5537760
C           0.6338885     0.7503054    -0.4570691
H           1.2781263     1.3298817    -1.1129545
C          -0.5958440     1.2683090    -0.0517496
H          -0.9091156     2.2490319    -0.3995999
C          -1.4240815     0.5259658     0.7927216
H          -2.3797001     0.9321881     1.1134020
C           1.0475398    -0.5182225    -0.0255007
C           2.3203588    -1.1258846    -0.5334556
C          -1.0237804    -0.7423728     1.2184844
H          -1.6679280    -1.3271940     1.8697130
C           5.8928585     1.1520225     0.2333107
H           6.7837982     1.7455021     0.4185213
C           4.8616185     1.1116823     1.1772390
H           4.9423335     1.6699811     2.1049757
C           0.1979588    -1.2679825     0.7992797
H           0.5032824    -2.2650729     1.1013829
C           3.7229850     0.3619379     0.9115299
H           2.9063626     0.3478342     1.6261739
C           3.5861136    -0.3870671    -0.2725948
C           4.6483041    -0.3564162    -1.2083401
N           4.5810272    -1.0291850    -2.4398875
H           5.1589601    -0.6691492    -3.1914212
C           5.7860265     0.4248979    -0.9449923
H           6.5899397     0.4465254    -1.6767625
C           4.1137377    -2.3131865    -2.6899987
O           4.2665715    -2.8354887    -3.7779615
N           2.2186522    -2.2779920    -1.0932072
C           3.4287968    -2.9789628    -1.5008171
H           3.1668243    -3.9912280    -1.8116064
H           4.1558383    -3.0388676    -0.6738955
30
114_C15H12N2O_0-6-7-18 (75,) energy =    -763.5513075
C           0.4976301     0.6397424    -0.6696667
H           1.0355433     1.1198433    -1.4829985
C          -0.7221085     1.1598250    -0.2369026
H          -1.1341840     2.0420397    -0.7195068
C          -1.4143446     0.5454122     0.8088332
H          -2.3625007     0.9533293     1.1487717
C           1.0363721    -0.5027770    -0.0637016
C           2.3078220    -1.1170001    -0.5804364
C          -0.8886803    -0.5994036     1.4102007
H          -1.4280019    -1.0885095     2.2170489
C           5.9019796     1.0672788     0.3421832
H           6.7989234     1.6376345     0.5668282
C           4.8464272     1.0189068     1.2584430
H           4.9130254     1.5490643     2.2036359
C           0.3236727    -1.1292994     0.9664172
H           0.7205017    -2.0375070     1.4112279
C           3.7016122     0.2992571     0.9421605
H           2.8661242     0.2828338     1.6345404
C           3.5813442    -0.4143208    -0.2656647
C           4.6647180    -0.3705544    -1.1768337
N           4.6145151    -0.9916449    -2.4359185
H           5.2168993    -0.6132282    -3.1586480
C           5.8097912     0.3801085    -0.8608807
H           6.6305080     0.4112519    -1.5734120
C           4.1168304    -2.2475452    -2.7571803
O           4.2792004    -2.7218866    -3.8656999
N           2.1877179    -2.2359482    -1.1974148
C           3.3881081    -2.9492286    -1.6166488
H           3.1052172    -3.9376758    -1.9809416
H           4.0940767    -3.0687508    -0.7783456
30
114_C15H12N2O_0-6-7-18 (90,) energy =    -763.5494159
C           0.3484111     0.4581857    -0.8402405
H           0.7765621     0.7835108    -1.7845457
C          -0.8616554     0.9948215    -0.3995959
H          -1.3732793     1.7386056    -1.0046475
C          -1.4170775     0.5735801     0.8102008
H          -2.3590935     0.9927270     1.1533535
C           1.0167326    -0.5051386    -0.0751521
C           2.2920877    -1.1261208    -0.5827235
C          -0.7624102    -0.3953143     1.5720619
H          -1.1957403    -0.7386455     2.5077421
C           5.9103591     0.9743513     0.4505803
H           6.8131156     1.5242082     0.7013588
C           4.8500574     0.9020132     1.3594192
H           4.9175857     1.3942270     2.3248613
C           0.4441840    -0.9385366     1.1273550
H           0.9386109    -1.7128276     1.7084474
C           3.6983159     0.2094309     1.0102835
H           2.8596991     0.1822304     1.6978259
C           3.5731931    -0.4561410    -0.2245271
C           4.6603451    -0.3841803    -1.1306188
N           4.6101620    -0.9425438    -2.4188273
H           5.2244028    -0.5363123    -3.1160662
C           5.8132068     0.3390027    -0.7797618
H           6.6359055     0.3905474    -1.4888597
C           4.1007437    -2.1743607    -2.8071195
O           4.2664995    -2.5955443    -3.9363660
N           2.1598235    -2.2010902    -1.2698722
C           3.3514359    -2.9178861    -1.7085755
H           3.0542298    -3.8830099    -2.1207663
H           4.0466091    -3.0880845    -0.8703239
30
114_C15H12N2O_0-6-7-18 (105,) energy =    -763.5483194
C           0.2376752     0.2485576    -0.9601562
H           0.5820503     0.4011411    -1.9789654
C          -0.9810840     0.7845928    -0.5443851
H          -1.5814179     1.3618770    -1.2425282
C          -1.4328919     0.5727845     0.7594482
H          -2.3833385     0.9885441     1.0828303
C           1.0276329    -0.4946408    -0.0740880
C           2.3112385    -1.1096018    -0.5689596
C          -0.6641331    -0.1879123     1.6412044
H          -1.0186390    -0.3772720     2.6509496
C           5.9645118     0.8959404     0.5564092
H           6.8759356     1.4214560     0.8270971
C           4.9080792     0.7925521     1.4660819
H           4.9853039     1.2379539     2.4532824
C           0.5567515    -0.7224826     1.2260702
H           1.1310150    -1.3433882     1.9089588
C           3.7462054     0.1309116     1.0918996
H           2.9149063     0.0909120     1.7855954
C           3.6019454    -0.4761391    -0.1710177
C           4.6848279    -0.3674291    -1.0806300
N           4.6244684    -0.8506776    -2.3991193
H           5.2419061    -0.4101952    -3.0723300
C           5.8490595     0.3235021    -0.7022140
H           6.6664844     0.4000429    -1.4151115
C           4.1122817    -2.0576839    -2.8538417
O           4.2794010    -2.4196281    -4.0032217
N           2.1726272    -2.1341983    -1.3289584
C           3.3535156    -2.8480698    -1.7966927
H           3.0427844    -3.7868193    -2.2570710
H           4.0447643    -3.0697089    -0.9673254
30
114_C15H12N2O_0-6-7-18 (120,) energy =    -763.5470176
C           0.1248549     0.0364349    -1.0237324
H           0.4113817     0.0123427    -2.0704409
C          -1.1124664     0.5549390    -0.6462389
H          -1.7857038     0.9460805    -1.4043852
C          -1.4908200     0.5599603     0.6976111
H          -2.4568239     0.9601003     0.9933873
C           1.0205961    -0.4591272    -0.0643336
C           2.3087985    -1.0706646    -0.5516248
C          -0.6279413     0.0282299     1.6556813
H          -0.9258091    -0.0057563     2.7002937
C           6.0377421     0.7907704     0.6109200
H           6.9676295     1.2803456     0.8859305
C           5.0030617     0.6559908     1.5401598
H           5.1142376     1.0410103     2.5492945
C           0.6157925    -0.4814194     1.2784318
H           1.2433115    -0.9438153     2.0339475
C           3.8175018     0.0400200     1.1616488
H           3.0130652    -0.0175539     1.8818102
C           3.6207487    -0.4912064    -0.1281224
C           4.6848692    -0.3500728    -1.0579262
N           4.5882976    -0.7554439    -2.4012756
H           5.1966890    -0.2838396    -3.0615122
C           5.8741090     0.2933001    -0.6732713
H           6.6734699     0.3910638    -1.4038152
C           4.0693045    -1.9396731    -2.9044938
O           4.2176895    -2.2504985    -4.0710673
N           2.1567669    -2.0519121    -1.3670450
C           3.3202366    -2.7667429    -1.8693180
H           2.9916270    -3.6837279    -2.3602491
H           4.0203972    -3.0266019    -1.0586414
30
114_C15H12N2O_0-6-7-18 (135,) energy =    -763.5467192
C           0.0294330    -0.4102393    -1.0372620
H           0.2405987    -0.7971586    -2.0277198
C          -1.1913718     0.2008684    -0.7644533
H          -1.9310428     0.3010637    -1.5543660
C          -1.4615228     0.6892895     0.5152940
H          -2.4131792     1.1673817     0.7313496
C           1.0112880    -0.5504120    -0.0393217
C           2.3059903    -1.1980720    -0.4496807
C          -0.4947577     0.5657428     1.5126036
H          -0.6912808     0.9418892     2.5130921
C           6.0059264     0.7092400     0.7048795
H           6.9179443     1.2324132     0.9777308
C           5.1301960     0.2502959     1.6923771
H           5.3606572     0.3958631     2.7434366
C           0.7338129    -0.0356475     1.2364697
H           1.4624187    -0.1008241     2.0337633
C           3.9557659    -0.3952275     1.3222324
H           3.2956233    -0.7667549     2.0970317
C           3.6186740    -0.6109737    -0.0260703
C           4.5613196    -0.2246906    -1.0090306
N           4.3580036    -0.4917236    -2.3767006
H           4.8442069     0.1012934    -3.0405235
C           5.7289549     0.4586117    -0.6324449
H           6.4306498     0.7646926    -1.4046113
C           3.9707175    -1.7088583    -2.9281846
O           4.0698582    -1.9232446    -4.1207847
N           2.1998617    -2.1403642    -1.3179901
C           3.4054535    -2.6980702    -1.9087912
H           3.1581251    -3.6143481    -2.4461775
H           4.1835995    -2.9187609    -1.1602159
30
114_C15H12N2O_0-6-7-18 (150,) energy =    -763.5489412
C          -0.1193876    -0.6277319    -0.9314324
H           0.0042148    -1.1908747    -1.8490940
C          -1.3350215    -0.0227609    -0.6296631
H          -2.1644433    -0.1089260    -1.3266532
C          -1.4860139     0.7037500     0.5540944
H          -2.4340274     1.1799635     0.7896578
C           0.9768641    -0.5368923    -0.0520736
C           2.2679759    -1.1737217    -0.4855612
C          -0.4016535     0.8284675     1.4208279
H          -0.4979144     1.4047152     2.3372055
C           5.9801031     0.6183709     0.7958046
H           6.8976750     1.1104916     1.1054242
C           5.0914593     0.1133524     1.7489390
H           5.3179987     0.1905222     2.8080879
C           0.8211117     0.2290172     1.1146525
H           1.6509510     0.3815901     1.7921174
C           3.9100494    -0.4907789     1.3322033
H           3.2315955    -0.8976633     2.0745952
C           3.5804303    -0.6138176    -0.0297742
C           4.5375037    -0.1918166    -0.9812831
N           4.3425293    -0.3953983    -2.3609853
H           4.8375060     0.2212590    -2.9961859
C           5.7113705     0.4510223    -0.5567052
H           6.4257023     0.7887309    -1.3036526
C           3.9568930    -1.5897661    -2.9620003
O           4.0660029    -1.7583767    -4.1609514
N           2.1728189    -2.0911847    -1.3822541
C           3.3824645    -2.6203952    -1.9873663
H           3.1410239    -3.5130712    -2.5657216
H           4.1559501    -2.8730891    -1.2438812
30
114_C15H12N2O_0-6-7-18 (165,) energy =    -763.5516788
C          -0.2061836    -0.8043994    -0.8024267
H          -0.1436824    -1.5034484    -1.6281216
C          -1.4192220    -0.2200277    -0.4568459
H          -2.3132950    -0.4651817    -1.0240705
C          -1.4890196     0.6874886     0.6042911
H          -2.4366858     1.1467909     0.8726641
C           0.9710597    -0.5138814    -0.0854864
C           2.2573019    -1.1306572    -0.5575116
C          -0.3270706     1.0130067     1.3007093
H          -0.3602796     1.7342655     2.1129673
C           5.9767323     0.5208118     0.8757073
H           6.8999124     0.9722099     1.2279082
C           5.0372716     0.0290450     1.7865787
H           5.2277620     0.0783607     2.8544624
C           0.8928624     0.4303826     0.9514999
H           1.7836567     0.7398022     1.4835320
C           3.8510710    -0.5228855     1.3151293
H           3.1225137    -0.9078093     2.0216419
C           3.5683742    -0.6084745    -0.0605675
C           4.5687665    -0.1939373    -0.9693342
N           4.4107281    -0.3477760    -2.3595698
H           4.9425904     0.2731306    -2.9598149
C           5.7488635     0.3966030    -0.4888767
H           6.4989846     0.7288605    -1.2024069
C           3.9981907    -1.5053619    -3.0118506
O           4.1298966    -1.6348339    -4.2133347
N           2.1628722    -2.0154927    -1.4870533
C           3.3709548    -2.5510775    -2.0875624
H           3.1194694    -3.4156755    -2.7032216
H           4.1205132    -2.8519513    -1.3372031
30
114_C15H12N2O_0-6-7-18 (180,) energy =    -763.5542509
C          -0.2393400    -0.9578233    -0.6554679
H          -0.2073851    -1.7687278    -1.3739185
C          -1.4513631    -0.4012449    -0.2639331
H          -2.3783317    -0.7858526    -0.6810969
C          -1.4807307     0.6525995     0.6549057
H          -2.4284656     1.0886814     0.9594175
C           0.9780526    -0.4887942    -0.1257440
C           2.2591764    -1.0789324    -0.6371898
C          -0.2825845     1.1486488     1.1645394
H          -0.2883444     1.9817383     1.8623873
C           5.9690420     0.4319616     0.9606964
H           6.8930611     0.8428948     1.3575397
C           4.9692611    -0.0246019     1.8249863
H           5.1111861     0.0153657     2.9007652
C           0.9357911     0.5909912     0.7716586
H           1.8537727     1.0215996     1.1537674
C           3.7853455    -0.5258241     1.2960298
H           3.0026212    -0.8715930     1.9640331
C           3.5651644    -0.5992352    -0.0920598
C           4.6162238    -0.2069269    -0.9526167
N           4.5069839    -0.3176114    -2.3511325
H           5.0892813     0.2967549    -2.9098933
C           5.7964929     0.3312648    -0.4138088
H           6.5879035     0.6452055    -1.0900232
C           4.0668358    -1.4325340    -3.0568505
O           4.2366734    -1.5274736    -4.2568757
N           2.1615817    -1.9252924    -1.6018400
C           3.3658927    -2.4804569    -2.1915937
H           3.0994878    -3.3112736    -2.8463912
H           4.0797453    -2.8396212    -1.4317411
