28
088_C10H15N2O+_8-0-19-16 (-165,) energy =    -574.6104356
C           3.7404443     2.1619638    -0.1895303
C           3.5515835     1.0655471    -1.1347451
N           2.3216175     0.4010473    -0.9931735
H           2.1838427    -0.3425608    -1.6703035
C           1.3972907     0.6221879    -0.0201215
H           0.5123379    -0.0037123    -0.0445393
C           1.6209513     1.5895980     0.9172525
H           0.9006316     1.7764402     1.7033446
C           2.8184832     2.3436647     0.8165982
N           7.9878916     3.2229059    -0.2553414
H           2.9927632     3.1259668     1.5545094
H           8.2439233     2.2623364    -0.5151792
H           8.8656198     3.7482626    -0.1778948
C           7.1162725     3.8042370    -1.3611303
H           7.7129349     3.7891236    -2.2765458
H           6.9299097     4.8441808    -1.0758934
C           5.8425051     2.9782822    -1.4837018
H           6.0664851     1.9569370    -1.8002906
H           5.2471053     3.4087198    -2.2958244
C           5.0390405     2.9643364    -0.1637456
H           4.7824099     4.0037684     0.0895630
C           5.9632501     2.4220928     0.9617750
H           6.1748420     1.3602252     0.7770364
H           5.4615624     2.4724718     1.9333839
C           7.2726891     3.1971900     1.0856244
H           7.9601068     2.7518572     1.8093902
H           7.1077603     4.2448986     1.3533618
O           4.3392685     0.6790739    -2.0031030
28
088_C10H15N2O+_8-0-19-16 (-150,) energy =    -574.6148249
C           3.7274678     2.2201734    -0.1543171
C           3.7124276     0.9753921    -0.9155308
N           2.4977106     0.2803200    -0.8510083
H           2.4824849    -0.5705825    -1.4044546
C           1.4435904     0.5945699    -0.0476921
H           0.5897886    -0.0720271    -0.0916539
C           1.5102944     1.6948453     0.7578986
H           0.6867520     1.9510039     1.4121329
C           2.6846447     2.4906224     0.7018112
N           7.9648833     3.1457940    -0.3333600
H           2.7408579     3.3720573     1.3388686
H           8.1296314     2.1964030    -0.6910246
H           8.8829400     3.5986473    -0.2677568
C           7.0762715     3.8873962    -1.3224078
H           7.6181227     3.9275336    -2.2706454
H           6.9780094     4.9032010    -0.9270901
C           5.7458088     3.1582433    -1.4447350
H           5.8870398     2.1614154    -1.8718219
H           5.1299338     3.7178244    -2.1582647
C           5.0138005     3.0296252    -0.0874887
H           4.7685102     4.0358765     0.2793707
C           5.9724843     2.3559742     0.9338764
H           6.1167249     1.3076689     0.6426385
H           5.5238271     2.3483174     1.9325061
C           7.3269499     3.0497867     1.0427870
H           8.0259890     2.5089599     1.6859427
H           7.2407916     4.0796123     1.4018015
O           4.6493822     0.4930138    -1.5643278
28
088_C10H15N2O+_8-0-19-16 (-135,) energy =    -574.6185412
C           3.9588629     1.7348538    -0.4493330
C           3.4452171     1.7829436     0.9144086
N           2.1481619     1.2794576     1.0569852
H           1.7986507     1.2997440     2.0098655
C           1.3443449     0.8590925     0.0395922
H           0.3542508     0.5181278     0.3199511
C           1.8025425     0.8893603    -1.2461755
H           1.1706431     0.5667534    -2.0638649
C           3.1266827     1.3503374    -1.4736385
N           7.6415484     3.8362201     0.3405017
H           3.4982630     1.3762110    -2.4964344
H           7.2836396     3.9718400     1.2947072
H           8.5600085     4.2911655     0.3019775
C           7.7780837     2.3430729     0.0818632
H           8.5054455     1.9580714     0.8010083
H           8.1953745     2.2545640    -0.9259055
C           6.4133350     1.6832841     0.2252671
H           6.0663086     1.7577189     1.2603363
H           6.5369494     0.6175494     0.0028774
C           5.3426194     2.3025438    -0.7082528
H           5.6165737     2.0844354    -1.7495175
C           5.3112178     3.8439708    -0.5224032
H           4.8802107     4.0706766     0.4597403
H           4.6599872     4.3030665    -1.2734498
C           6.6845461     4.4958534    -0.6392521
H           6.6634390     5.5624372    -0.4012248
H           7.1339331     4.3628011    -1.6278704
O           4.0402899     2.2315323     1.9043347
28
088_C10H15N2O+_8-0-19-16 (-120,) energy =    -574.6200126
C           3.9259471     1.8208522    -0.4752155
C           3.4007096     1.9261328     0.8801324
N           2.1219129     1.3862641     1.0440705
H           1.7585298     1.4576545     1.9892405
C           1.3742116     0.8066812     0.0621891
H           0.3980685     0.4382914     0.3563729
C           1.8681312     0.7183283    -1.2075734
H           1.2818536     0.2610758    -1.9944703
C           3.1649753     1.2404868    -1.4608085
N           7.6538924     3.7834860     0.3742720
H           3.5647343     1.1733352    -2.4708330
H           7.2909016     3.8725688     1.3322026
H           8.5840196     4.2156270     0.3684845
C           7.7553725     2.3060722     0.0273527
H           8.4719645     1.8604721     0.7219803
H           8.1718548     2.2677316    -0.9837584
C           6.3743462     1.6705004     0.1286045
H           6.0437285     1.6732807     1.1725221
H           6.4659953     0.6238072    -0.1802657
C           5.3072530     2.3893437    -0.7367952
H           5.5527154     2.2188234    -1.7942216
C           5.3264762     3.9183343    -0.4776768
H           4.9071270     4.1139259     0.5150542
H           4.6898531     4.4315948    -1.2059760
C           6.7213315     4.5243627    -0.5713996
H           6.7398641     5.5784025    -0.2829041
H           7.1661341     4.4217188    -1.5658196
O           3.9830360     2.4378802     1.8473891
28
088_C10H15N2O+_8-0-19-16 (-105,) energy =    -574.6191054
C           3.8873905     1.9109557    -0.4969147
C           3.3295203     2.0615057     0.8413922
N           2.0686765     1.4802050     1.0072250
H           1.6751608     1.5982717     1.9354963
C           1.3992148     0.7588140     0.0637797
H           0.4350825     0.3605113     0.3586572
C           1.9542204     0.5692808    -1.1691843
H           1.4344318    -0.0083850    -1.9229141
C           3.2232849     1.1522986    -1.4302477
N           7.6848565     3.7288472     0.3747935
H           3.6712796     1.0045089    -2.4111919
H           7.3418146     3.7849133     1.3425289
H           8.6293647     4.1286184     0.3721849
C           7.7305772     2.2678162    -0.0443884
H           8.4446926     1.7653318     0.6129933
H           8.1261163     2.2651563    -1.0644775
C           6.3301463     1.6725009     0.0487465
H           6.0245829     1.6211083     1.1002804
H           6.3761500     0.6447171    -0.3252275
C           5.2708121     2.4807487    -0.7443011
H           5.4955435     2.3598851    -1.8139224
C           5.3472118     3.9918657    -0.4161012
H           4.9521867     4.1590390     0.5909388
H           4.7165695     4.5581141    -1.1098196
C           6.7617746     4.5477194    -0.5158012
H           6.8274026     5.5853239    -0.1788797
H           7.1829164     4.4751610    -1.5231667
O           3.8769763     2.6295461     1.7969015
28
088_C10H15N2O+_8-0-19-16 (-90,) energy =    -574.6159434
C           3.8512436     1.9828596    -0.4941502
C           3.2180294     2.2002512     0.8018283
N           1.9702521     1.5803634     0.9421513
H           1.5210131     1.7524866     1.8360719
C           1.4081801     0.7211794     0.0462203
H           0.4488978     0.2984924     0.3225596
C           2.0588787     0.4325558    -1.1189221
H           1.6291442    -0.2576551    -1.8336522
C           3.3054580     1.0679278    -1.3632776
N           7.7394901     3.6757390     0.3375781
H           3.8277209     0.8426937    -2.2918323
H           7.4540010     3.7049835     1.3247821
H           8.6955382     4.0450089     0.2968395
C           7.7154179     2.2319906    -0.1394028
H           8.4399691     1.6800459     0.4647410
H           8.0653283     2.2576580    -1.1756171
C           6.3000336     1.6764324    -0.0136207
H           6.0393103     1.5753160     1.0478344
H           6.2945853     0.6687643    -0.4404876
C           5.2381529     2.5601308    -0.7163940
H           5.4408306     2.5000178    -1.7966519
C           5.3722262     4.0453252    -0.3112508
H           5.0302418     4.1721348     0.7203448
H           4.7230920     4.6649779    -0.9395608
C           6.7963740     4.5613594    -0.4657930
H           6.9149811     5.5800685    -0.0883259
H           7.1611459     4.5205641    -1.4967684
O           3.6897802     2.8427875     1.7484108
28
088_C10H15N2O+_8-0-19-16 (-75,) energy =    -574.6116913
C           3.8310333     2.0025522    -0.4419506
C           3.0500851     2.3533805     0.7401552
N           1.8184871     1.6851154     0.8271345
H           1.2659794     1.9514495     1.6360148
C           1.3920572     0.6890036     0.0035286
H           0.4258168     0.2547523     0.2342510
C           2.1769415     0.2894154    -1.0400194
H           1.8567783    -0.5072879    -1.6992104
C           3.4137314     0.9581150    -1.2344715
N           7.8152930     3.6258466     0.2612592
H           4.0380300     0.6494515    -2.0722030
H           7.6356845     3.6074792     1.2730134
H           8.7679729     3.9862863     0.1399173
C           7.7206620     2.2091197    -0.2833843
H           8.4826789     1.6152290     0.2276573
H           7.9816326     2.2827953    -1.3431504
C           6.3093482     1.6667656    -0.0720336
H           6.1332068     1.5033644     1.0001102
H           6.2552460     0.6837641    -0.5497603
C           5.2158331     2.6048316    -0.6432573
H           5.3811508     2.6361942    -1.7324088
C           5.3993687     4.0482467    -0.1297405
H           5.1540373     4.1035096     0.9342931
H           4.6978120     4.7215541    -0.6338069
C           6.8078927     4.5648574    -0.3909804
H           6.9751981     5.5569186     0.0356448
H           7.0700569     4.5862209    -1.4532701
O           3.3693140     3.1419620     1.6354168
28
088_C10H15N2O+_8-0-19-16 (-60,) energy =    -574.6083309
C           3.8339943     1.9965771    -0.3800792
C           2.8864994     2.5386516     0.5902971
N           1.6787174     1.8224755     0.6654908
H           1.0189045     2.2139788     1.3301260
C           1.3710095     0.6898257    -0.0206159
H           0.3942694     0.2599960     0.1711173
C           2.2789553     0.1611562    -0.8926065
H           2.0547099    -0.7401749    -1.4484875
C           3.5170816     0.8360815    -1.0489519
N           7.8870174     3.5845328     0.1929980
H           4.2318608     0.4215465    -1.7585629
H           7.8170982     3.4831493     1.2130284
H           8.8218133     3.9613558     0.0015644
C           7.7337585     2.2158153    -0.4507374
H           8.5329257     1.5827022    -0.0570499
H           7.9009704     2.3719700    -1.5203891
C           6.3424033     1.6577102    -0.1624304
H           6.2503997     1.4214990     0.9068107
H           6.2589217     0.7057885    -0.6949485
C           5.2109699     2.6304500    -0.5842583
H           5.3258966     2.7799581    -1.6709043
C           5.4368571     4.0101367     0.0697790
H           5.3029551     3.9573381     1.1537070
H           4.6914240     4.7316314    -0.2734565
C           6.8157180     4.5647233    -0.2691493
H           7.0179449     5.5147632     0.2314103
H           6.9729865     4.6892307    -1.3448280
O           3.0401157     3.5220267     1.3181813
28
088_C10H15N2O+_8-0-19-16 (-45,) energy =    -574.6065901
C           3.8344216     1.9652567    -0.3416306
C           2.7607811     2.6684129     0.3619129
N           1.5721084     1.9266775     0.4779893
H           0.8369722     2.4249447     0.9695640
C           1.3467663     0.6802923    -0.0142320
H           0.3621126     0.2609911     0.1595963
C           2.3424089     0.0363252    -0.6894032
H           2.1855758    -0.9543450    -1.0963670
C           3.5840828     0.7066999    -0.8414200
N           7.9169475     3.5484100     0.1706280
H           4.3592629     0.1855133    -1.3980092
H           7.9241136     3.3231525     1.1728171
H           8.8302596     3.9660035    -0.0396993
C           7.7312191     2.2668140    -0.6226081
H           8.5566466     1.6008347    -0.3588031
H           7.8295707     2.5514898    -1.6741154
C           6.3663381     1.6545577    -0.3200206
H           6.3351829     1.3068645     0.7217410
H           6.2881281     0.7596046    -0.9431860
C           5.1942738     2.6367905    -0.5759574
H           5.2395549     2.9216318    -1.6407350
C           5.4496858     3.9280906     0.2363910
H           5.3860734     3.7275189     1.3131417
H           4.6756516     4.6699345     0.0413255
C           6.7998436     4.5498155    -0.0944014
H           7.0122094     5.4314330     0.5152098
H           6.8896894     4.8195033    -1.1509511
O           2.7929459     3.8029116     0.8433361
28
088_C10H15N2O+_8-0-19-16 (-30,) energy =    -574.6081443
C           3.8419219     1.9181333    -0.2777222
C           2.6821136     2.7356734     0.0876243
N           1.4958296     2.0070734     0.2649177
H           0.7046634     2.5839384     0.5328137
C           1.3251111     0.6820027     0.0115701
H           0.3283363     0.2846598     0.1664989
C           2.3845306    -0.0604818    -0.4210294
H           2.2693821    -1.1141778    -0.6405579
C           3.6376560     0.5897261    -0.5764725
N           7.9098355     3.5386561     0.1764422
H           4.4644049    -0.0193272    -0.9307209
H           7.9961385     3.1857489     1.1370680
H           8.7925896     4.0158434    -0.0379525
C           7.7082875     2.3644137    -0.7650646
H           8.5660607     1.6992137    -0.6380237
H           7.7346867     2.7845958    -1.7744760
C           6.3823494     1.6665666    -0.4731947
H           6.4154921     1.1931372     0.5173269
H           6.3097527     0.8537525    -1.2028053
C           5.1710653     2.6240792    -0.5555685
H           5.1281231     3.0473439    -1.5720727
C           5.4421272     3.7990837     0.4213474
H           5.4539409     3.4270207     1.4563228
H           4.6225296     4.5175473     0.3681682
C           6.7447369     4.5209256     0.1220869
H           6.9627317     5.3110097     0.8448152
H           6.7635553     4.9475190    -0.8851289
O           2.6486248     3.9601009     0.2365749
28
088_C10H15N2O+_8-0-19-16 (-15,) energy =    -574.6113972
C           3.8495780     1.9123822    -0.2660223
C           2.6755394     2.7700461    -0.1004228
N           1.4721263     2.0754766     0.0781502
H           0.6646434     2.6783967     0.2000402
C           1.3182990     0.7242563     0.0126702
H           0.3104547     0.3472730     0.1447196
C           2.4038141    -0.0696648    -0.2164542
H           2.2966013    -1.1448797    -0.2817059
C           3.6718787     0.5535832    -0.3741861
N           7.9100118     3.5135175     0.1603504
H           4.5228031    -0.0935405    -0.5684986
H           8.0421002     3.0771004     1.0806329
H           8.7774139     4.0211653    -0.0466224
C           7.6853121     2.4231499    -0.8743817
H           8.5582517     1.7663948    -0.8421432
H           7.6619322     2.9315975    -1.8423262
C           6.3828909     1.6791504    -0.5904723
H           6.4700256     1.1214345     0.3521137
H           6.2771888     0.9329158    -1.3856141
C           5.1673160     2.6251791    -0.5371262
H           5.0735115     3.1401686    -1.5062039
C           5.4550727     3.7146306     0.5311999
H           5.5110728     3.2532191     1.5279261
H           4.6231089     4.4222024     0.5514854
C           6.7347663     4.4824277     0.2464479
H           6.9785775     5.2066072     1.0276886
H           6.7031743     4.9982187    -0.7176499
O           2.6660024     4.0040420    -0.1190982
28
088_C10H15N2O+_8-0-19-16 (0,) energy =    -574.6135774
C           3.8599098     1.8987367    -0.2922641
C           2.6802306     2.7608279    -0.2684764
N           1.4694600     2.0785780    -0.1041759
H           0.6522777     2.6804529    -0.0894215
C           1.3311392     0.7259837    -0.0109998
H           0.3195786     0.3524887     0.1007239
C           2.4336741    -0.0762440    -0.0644410
H           2.3337239    -1.1520780     0.0028584
C           3.7083335     0.5363963    -0.2201842
N           7.9029949     3.5113990     0.1462891
H           4.5767080    -0.1150028    -0.2765867
H           8.0749237     3.0114205     1.0268226
H           8.7536495     4.0503771    -0.0505242
C           7.6671706     2.4929709    -0.9593145
H           8.5563993     1.8591737    -1.0038527
H           7.5973095     3.0700193    -1.8855782
C           6.3914902     1.7012153    -0.6835086
H           6.5302473     1.0858647     0.2164880
H           6.2588354     1.0057564    -1.5197865
C           5.1713684     2.6241668    -0.5242521
H           5.0511665     3.2097955    -1.4487747
C           5.4574336     3.6438200     0.6090179
H           5.5405677     3.1228318     1.5734750
H           4.6159170     4.3374854     0.6805617
C           6.7178370     4.4525345     0.3447473
H           6.9795935     5.1188685     1.1704871
H           6.6454251     5.0390586    -0.5755302
O           2.6898217     3.9892203    -0.3860445
28
088_C10H15N2O+_8-0-19-16 (15,) energy =    -574.6141404
C           3.8610695     1.8867155    -0.3180116
C           2.6813134     2.7417147    -0.4181278
N           1.4652847     2.0681655    -0.2614483
H           0.6446048     2.6603144    -0.3391923
C           1.3311622     0.7334543    -0.0170237
H           0.3168348     0.3639976     0.0822172
C           2.4386187    -0.0571839     0.0888569
H           2.3387742    -1.1177726     0.2817470
C           3.7184321     0.5454475    -0.0691885
N           7.8962800     3.4925390     0.1366599
H           4.5938025    -0.0955513     0.0040020
H           8.0943925     2.9338916     0.9754848
H           8.7374493     4.0522865    -0.0419543
C           7.6445790     2.5497450    -1.0324672
H           8.5417803     1.9357868    -1.1443252
H           7.5405103     3.1893490    -1.9132957
C           6.3872834     1.7226133    -0.7766276
H           6.5675585     1.0450660     0.0699065
H           6.2257824     1.0882198    -1.6550680
C           5.1690238     2.6221456    -0.5135770
H           5.0238515     3.2688476    -1.3919118
C           5.4630042     3.5725510     0.6733208
H           5.5666811     3.0000685     1.6057504
H           4.6185471     4.2561422     0.7964926
C           6.7114583     4.4088368     0.4303879
H           6.9927883     5.0214968     1.2905850
H           6.6078040     5.0534864    -0.4468792
O           2.7056134     3.9582672    -0.6205358
28
088_C10H15N2O+_8-0-19-16 (30,) energy =    -574.6132262
C           3.8558612     1.8826406    -0.3335659
C           2.6743953     2.7068091    -0.5767997
N           1.4589037     2.0308485    -0.4216878
H           0.6368215     2.5975761    -0.6036113
C           1.3267736     0.7337117    -0.0222801
H           0.3129308     0.3596048     0.0640514
C           2.4347631    -0.0167178     0.2469580
H           2.3347990    -1.0458704     0.5677184
C           3.7147803     0.5858789     0.0894843
N           7.8955738     3.4645836     0.1252187
H           4.5927813    -0.0210690     0.3002379
H           8.1162823     2.8474590     0.9160850
H           8.7313700     4.0379581    -0.0342245
C           7.6157637     2.6070637    -1.1028894
H           8.5131951     2.0100894    -1.2837078
H           7.4830578     3.3088363    -1.9309514
C           6.3697120     1.7556976    -0.8723010
H           6.5821521     1.0129360    -0.0903142
H           6.1758965     1.1929125    -1.7916169
C           5.1597874     2.6294490    -0.5024046
H           4.9865788     3.3324098    -1.3296324
C           5.4780490     3.5011974     0.7346520
H           5.6029415     2.8740804     1.6284589
H           4.6377542     4.1759024     0.9233736
C           6.7199780     4.3560813     0.5148099
H           7.0257140     4.9096703     1.4061911
H           6.5901119     5.0580119    -0.3135534
O           2.6991802     3.8998738    -0.8855971
28
088_C10H15N2O+_8-0-19-16 (45,) energy =    -574.6119803
C           3.8405595     1.9258526    -0.3184843
C           2.6586890     2.6545095    -0.7766950
N           1.4566265     1.9527060    -0.6165346
H           0.6347328     2.4508898    -0.9425418
C           1.3325602     0.7223311    -0.0429932
H           0.3270848     0.3215345     0.0187644
C           2.4372149     0.0653808     0.4174755
H           2.3437760    -0.9104503     0.8768325
C           3.7045937     0.6966121     0.2745377
N           7.9169511     3.4212001     0.1064929
H           4.5820583     0.1681230     0.6433057
H           8.1552382     2.7366199     0.8342397
H           8.7572141     3.9921803    -0.0373446
C           7.5741977     2.6740422    -1.1766889
H           8.4525745     2.0802090    -1.4419277
H           7.4230562     3.4448671    -1.9375074
C           6.3211549     1.8278719    -0.9674086
H           6.5471181     1.0153131    -0.2623273
H           6.0787782     1.3505130    -1.9225082
C           5.1395281     2.6852011    -0.4769054
H           4.9329650     3.4461929    -1.2414216
C           5.5246124     3.4477261     0.8111567
H           5.6721436     2.7488970     1.6466455
H           4.7099915     4.1197202     1.0993393
C           6.7757303     4.2967854     0.6126870
H           7.1252660     4.7707174     1.5334573
H           6.6289773     5.0660665    -0.1505011
O           2.6658606     3.7868463    -1.2599689
28
088_C10H15N2O+_8-0-19-16 (60,) energy =    -574.6114341
C           3.8171969     1.9876362    -0.2458582
C           2.6742164     2.5690271    -0.9496437
N           1.4845060     1.8416236    -0.8011247
H           0.6886442     2.2391327    -1.2895268
C           1.3430695     0.6972609    -0.0751726
H           0.3515951     0.2587351    -0.0611809
C           2.4140574     0.1649807     0.5837040
H           2.3070895    -0.7435611     1.1625129
C           3.6640046     0.8371546     0.4853274
N           7.9459640     3.3534288     0.1170865
H           4.5165875     0.4105989     1.0122531
H           8.1996143     2.5936820     0.7601056
H           8.7948181     3.9147944    -0.0136881
C           7.5159601     2.7466635    -1.2131435
H           8.3600187     2.1572243    -1.5802412
H           7.3528111     3.5925183    -1.8867754
C           6.2470376     1.9211954    -1.0203639
H           6.4723449     1.0356631    -0.4091917
H           5.9420049     1.5489011    -2.0037797
C           5.1138263     2.7560059    -0.3874766
H           4.8820845     3.5833319    -1.0706676
C           5.5921936     3.3695446     0.9468055
H           5.7669099     2.5855717     1.6973571
H           4.8203792     4.0274901     1.3592324
C           6.8582877     4.2016125     0.7656204
H           7.2668047     4.5735378     1.7087185
H           6.6970845     5.0461513     0.0898723
O           2.6973431     3.5982351    -1.6233007
28
088_C10H15N2O+_8-0-19-16 (75,) energy =    -574.6116425
C           3.7871946     2.0292836    -0.1904487
C           2.7214296     2.4404708    -1.1037801
N           1.5369072     1.7035375    -0.9664641
H           0.7919591     1.9902161    -1.5932109
C           1.3487082     0.6646448    -0.1046955
H           0.3732377     0.1920779    -0.1295104
C           2.3578693     0.2707432     0.7262972
H           2.2144749    -0.5551670     1.4113151
C           3.5926665     0.9750661     0.6652232
N           7.9454221     3.3434690     0.0050769
H           4.3946750     0.6573960     1.3298188
H           8.2409108     2.5338302     0.5637695
H           8.7861426     3.9126752    -0.1431453
C           7.4134176     2.8462139    -1.3344768
H           8.2215142     2.2803625    -1.8050706
H           7.2141600     3.7430120    -1.9276356
C           6.1506844     2.0193833    -1.1135873
H           6.4002975     1.0852770    -0.5908025
H           5.7657257     1.7346236    -2.0981452
C           5.0758217     2.8100681    -0.3331754
H           4.8157793     3.6894513    -0.9363572
C           5.6589475     3.2981444     1.0079960
H           5.8911030     2.4531763     1.6715460
H           4.9303590     3.9182655     1.5404845
C           6.9160527     4.1381677     0.7997594
H           7.3965491     4.4305596     1.7368933
H           6.7128918     5.0355883     0.2088386
O           2.8055708     3.3417830    -1.9375284
28
088_C10H15N2O+_8-0-19-16 (90,) energy =    -574.6126912
C           3.7898174     2.0572495    -0.1282294
C           2.8417468     2.2973476    -1.2142341
N           1.6529480     1.5649294    -1.1116606
H           0.9871009     1.7390072    -1.8575757
C           1.3769537     0.6461808    -0.1427343
H           0.4155218     0.1500645    -0.2124042
C           2.2886846     0.3921824     0.8409545
H           2.0755894    -0.3392484     1.6101166
C           3.5153223     1.1143206     0.8288325
N           7.9625074     3.3344506    -0.0512267
H           4.2348551     0.9085462     1.6188075
H           8.2845055     2.4815510     0.4218797
H           8.7971244     3.9115986    -0.2031120
C           7.3477528     2.9467253    -1.3923855
H           8.1217850     2.4156906    -1.9522986
H           7.1222346     3.8879200    -1.9013070
C           6.0935437     2.1119980    -1.1609802
H           6.3605990     1.1382656    -0.7274405
H           5.6404570     1.9171584    -2.1380301
C           5.0739476     2.8459417    -0.2579393
H           4.8019211     3.7735210    -0.7787549
C           5.7389328     3.2145678     1.0804606
H           6.0098934     2.3162013     1.6526584
H           5.0514651     3.7884267     1.7109931
C           6.9881864     4.0648351     0.8647704
H           7.5252629     4.2784944     1.7923444
H           6.7577467     5.0082058     0.3620311
O           3.0330016     3.0610136    -2.1618857
28
088_C10H15N2O+_8-0-19-16 (105,) energy =    -574.6139484
C           3.8014019     2.0451026    -0.1189967
C           2.9420063     2.1610776    -1.2942813
N           1.7483466     1.4362761    -1.2097964
H           1.1448285     1.5261452    -2.0208606
C           1.3822937     0.6436483    -0.1622284
H           0.4263681     0.1403663    -0.2524873
C           2.2040144     0.5171672     0.9201955
H           1.9195391    -0.1114692     1.7544307
C           3.4324628     1.2364714     0.9252911
N           7.9751467     3.3256433    -0.0793889
H           4.0748648     1.1380024     1.7973142
H           8.3143145     2.4400097     0.3150110
H           8.8030728     3.9164702    -0.2144511
C           7.3137020     3.0388713    -1.4244202
H           8.0682372     2.5558755    -2.0504057
H           7.0689699     4.0154438    -1.8513584
C           6.0717989     2.1833504    -1.2136024
H           6.3566099     1.1826282    -0.8598385
H           5.5797524     2.0629847    -2.1828946
C           5.0817941     2.8439084    -0.2230975
H           4.8011028     3.8102880    -0.6661485
C           5.7905042     3.1117942     1.1148187
H           6.0813588     2.1712765     1.6035227
H           5.1274639     3.6339909     1.8132373
C           7.0316698     3.9793065     0.9220195
H           7.5986492     4.1223594     1.8453475
H           6.7843602     4.9583084     0.5023063
O           3.2079336     2.8252364    -2.2986910
28
088_C10H15N2O+_8-0-19-16 (120,) energy =    -574.6139454
C           3.8095742     2.0103926    -0.1390926
C           3.0059461     2.0184757    -1.3589916
N           1.8115447     1.2955041    -1.2680919
H           1.2524733     1.3061071    -2.1151841
C           1.3697825     0.6379861    -0.1587517
H           0.4163092     0.1302424    -0.2497579
C           2.1176365     0.6473346     0.9827121
H           1.7723539     0.1315568     1.8696939
C           3.3509128     1.3571817     0.9770452
N           7.9730436     3.3385078    -0.1038036
H           3.9312771     1.3695900     1.8963053
H           8.3246844     2.4282641     0.2167560
H           8.7946839     3.9436730    -0.2110819
C           7.2831427     3.1461500    -1.4518336
H           8.0278107     2.7209758    -2.1293431
H           7.0196468     4.1496361    -1.7977640
C           6.0580020     2.2611203    -1.2795088
H           6.3656667     1.2418904    -1.0055312
H           5.5411709     2.2035242    -2.2408995
C           5.0807601     2.8304670    -0.2205588
H           4.7800714     3.8236429    -0.5893113
C           5.8142715     3.0200041     1.1167171
H           6.1169096     2.0506878     1.5374609
H           5.1641356     3.4940147     1.8604419
C           7.0454728     3.9089554     0.9599178
H           7.6287736     3.9899851     1.8805622
H           6.7829226     4.9137443     0.6174848
O           3.3053684     2.6007260    -2.4049241
28
088_C10H15N2O+_8-0-19-16 (135,) energy =    -574.6122122
C           3.8226728     1.9659585    -0.1534042
C           3.0703158     1.8600072    -1.4031001
N           1.8742920     1.1395125    -1.2985435
H           1.3605301     1.0656874    -2.1708742
C           1.3540211     0.6289905    -0.1479945
H           0.4023513     0.1172580    -0.2357225
C           2.0282212     0.7844940     1.0278321
H           1.6225878     0.3918405     1.9514989
C           3.2685140     1.4797055     1.0060420
N           7.9841386     3.3311896    -0.1127861
H           3.7877957     1.6045150     1.9525425
H           8.3409419     2.3982992     0.1267757
H           8.8036400     3.9442548    -0.1864778
C           7.2649324     3.2464421    -1.4564730
H           7.9958557     2.8848278    -2.1838932
H           6.9895764     4.2740405    -1.7107855
C           6.0520284     2.3390509    -1.3336604
H           6.3780734     1.3051335    -1.1476640
H           5.5145414     2.3438513    -2.2846712
C           5.0884408     2.8056018    -0.2131704
H           4.7682111     3.8217117    -0.4985494
C           5.8472376     2.9132538     1.1203461
H           6.1511561     1.9177063     1.4733588
H           5.2140950     3.3429543     1.9041592
C           7.0748303     3.8139123     1.0067540
H           7.6727111     3.8263905     1.9214766
H           6.8047359     4.8413370     0.7472451
O           3.3947048     2.3499772    -2.4886141
28
088_C10H15N2O+_8-0-19-16 (150,) energy =    -574.6089767
C           3.8246317     1.9683715    -0.1586607
C           3.1466671     1.6935889    -1.4275690
N           1.9517135     0.9708975    -1.2983204
H           1.5004343     0.7750004    -2.1862376
C           1.3465048     0.6287983    -0.1289895
H           0.4038342     0.0992918    -0.2087830
C           1.9342478     0.9656395     1.0548820
H           1.4649658     0.7130390     1.9970735
C           3.1745906     1.6571630     1.0138046
N           8.0032632     3.3326170    -0.1145737
H           3.6218017     1.9198738     1.9682493
H           8.3585585     2.3791793     0.0258842
H           8.8249309     3.9462302    -0.1495068
C           7.2472382     3.3802064    -1.4390282
H           7.9553482     3.0895633    -2.2188502
H           6.9713875     4.4289092    -1.5837973
C           6.0361543     2.4655218    -1.3764646
H           6.3681507     1.4195801    -1.2950013
H           5.4836933     2.5409421    -2.3146468
C           5.0940553     2.8181888    -0.1982880
H           4.7675172     3.8575514    -0.3766268
C           5.8900797     2.8104515     1.1220345
H           6.1884273     1.7848321     1.3802704
H           5.2868568     3.1790918     1.9576062
C           7.1214769     3.7111806     1.0634391
H           7.7368202     3.6358293     1.9634337
H           6.8528144     4.7597081     0.9068352
O           3.5105443     2.0397316    -2.5550527
28
088_C10H15N2O+_8-0-19-16 (165,) energy =    -574.6066268
C           3.7842593     2.0344486    -0.1766681
C           3.2485293     1.4555282    -1.4105752
N           2.0524074     0.7388120    -1.2351125
H           1.6974159     0.3367932    -2.0969461
C           1.3549138     0.6051813    -0.0765574
H           0.4359194     0.0321960    -0.1280840
C           1.8297814     1.1875958     1.0621253
H           1.2893917     1.1030033     1.9962024
C           3.0514002     1.9059383     0.9823493
N           8.0062870     3.3057845    -0.1500681
H           3.4041632     2.3733123     1.8978761
H           8.3429312     2.3353669    -0.1453806
H           8.8407279     3.9027541    -0.1377912
C           7.2046101     3.5368257    -1.4252507
H           7.8760211     3.3352304    -2.2634262
H           6.9488881     4.6006184    -1.4242583
C           5.9738417     2.6424397    -1.4404033
H           6.2815559     1.5896805    -1.4996798
H           5.4211820     2.8295681    -2.3606422
C           5.0695116     2.8726994    -0.2056978
H           4.7687707     3.9338781    -0.2316773
C           5.9219471     2.6709097     1.0720121
H           6.2032605     1.6130492     1.1659373
H           5.3628029     2.9210498     1.9777486
C           7.1721263     3.5461443     1.0957300
H           7.8111635     3.3382763     1.9576076
H           6.9265976     4.6119767     1.0874827
O           3.7211136     1.5336798    -2.5468759
28
088_C10H15N2O+_8-0-19-16 (180,) energy =    -574.6075846
C           3.7644522     2.1040251    -0.1815013
C           3.4002730     1.2380313    -1.3008909
N           2.1813428     0.5598351    -1.1214839
H           1.9317475    -0.0310302    -1.9082034
C           1.3735572     0.6273915    -0.0304290
H           0.4685587     0.0310167    -0.0605761
C           1.7289380     1.4210892     1.0218112
H           1.1000988     1.4914665     1.9000228
C           2.9414782     2.1510347     0.9212511
N           8.0062374     3.2759373    -0.1741832
H           3.2081177     2.7970985     1.7561011
H           8.3187831     2.3063535    -0.3066043
H           8.8548716     3.8496964    -0.1173505
C           7.1692737     3.6827240    -1.3801368
H           7.8105756     3.5827532    -2.2592319
H           6.9312808     4.7404810    -1.2328286
C           5.9265380     2.8040049    -1.4651533
H           6.2107081     1.7645109    -1.6543023
H           5.3633093     3.1075112    -2.3496447
C           5.0637029     2.9154322    -0.1872354
H           4.7921852     3.9766768    -0.0683470
C           5.9513446     2.5295734     1.0270564
H           6.2106818     1.4637600     0.9666858
H           5.4132261     2.6596703     1.9705925
C           7.2228164     3.3684677     1.1243741
H           7.8867928     3.0358796     1.9262882
H           7.0043841     4.4310873     1.2643108
O           4.0322801     1.0523152    -2.3428633
