22
238_C9H11NO_1-0-5-12 (-165,) energy =    -479.5643667
N           1.0385348    -0.2638879    -0.0833502
C          -0.3863428     0.0322003    -0.0502292
H          -0.7562923     0.1559312    -1.0754732
H          -0.5431210     0.9485120     0.5172818
H          -0.9572162    -0.7770773     0.4274444
C           1.8564210     0.3569131     0.8368083
C           6.1303326     0.4871158     0.3218318
H           7.2100107     0.5438957     0.2115376
C           5.5628502     0.3225278     1.5883229
H           6.2002346     0.2521981     2.4656369
C           4.1786022     0.2611869     1.7303283
H           3.7228127     0.1672218     2.7108877
C           3.3449730     0.3348272     0.6058545
C           3.9202769     0.5097205    -0.6602055
H           3.2830095     0.6083078    -1.5343384
C           5.3065529     0.5909162    -0.8000524
H           5.7416824     0.7402085    -1.7846470
O           1.3990903     0.9908043     1.7859146
C           1.4233034    -1.3858001    -0.9255304
H           0.8096907    -2.2638459    -0.6789659
H           2.4691774    -1.6451502    -0.7668837
H           1.2726694    -1.1580102    -1.9898531
22
238_C9H11NO_1-0-5-12 (-150,) energy =    -479.5615871
N           1.0213473    -0.3369685     0.0476398
C          -0.3407542     0.1534614    -0.0965127
H          -0.5157391     0.4656335    -1.1354865
H          -0.4807059     0.9991168     0.5759695
H          -1.0767555    -0.6219940     0.1564615
C           1.8637444     0.2798713     0.9510994
C           6.1104721     0.5454479     0.2854132
H           7.1827601     0.6399365     0.1357926
C           5.5938873     0.3790331     1.5734699
H           6.2636796     0.3449710     2.4285045
C           4.2189268     0.2691193     1.7643766
H           3.8008978     0.1726406     2.7613963
C           3.3437375     0.2966421     0.6691852
C           3.8681104     0.4707521    -0.6185695
H           3.2003041     0.5316234    -1.4727283
C           5.2447527     0.6015826    -0.8077433
H           5.6394961     0.7510815    -1.8091629
O           1.4270876     0.9105132     1.9114154
C           1.3997504    -1.4154914    -0.8488062
H           0.6980020    -2.2521854    -0.7293203
H           2.4016882    -1.7742558    -0.6133990
H           1.3737847    -1.1051245    -1.9040129
22
238_C9H11NO_1-0-5-12 (-135,) energy =    -479.5568948
N           0.9990617    -0.4231748     0.1323330
C          -0.2599491     0.2338096    -0.1870063
H          -0.2279198     0.6421746    -1.2084081
H          -0.4273045     1.0386895     0.5287175
H          -1.1015325    -0.4685039    -0.1262197
C           1.8655031     0.1887524     1.0271079
C           6.0754140     0.6182201     0.2315028
H           7.1375233     0.7570291     0.0477015
C           5.6077378     0.4288732     1.5351042
H           6.3058153     0.4209346     2.3678302
C           4.2453907     0.2620899     1.7692493
H           3.8630622     0.1464402     2.7785235
C           3.3352185     0.2560362     0.7023351
C           3.8107344     0.4500824    -0.6012908
H           3.1152731     0.4813783    -1.4342540
C           5.1739132     0.6390735    -0.8336032
H           5.5304281     0.8049769    -1.8466957
O           1.4417084     0.7990647     2.0040709
C           1.3899083    -1.4857588    -0.7786139
H           0.6385975    -2.2858432    -0.7428100
H           2.3508742    -1.9071786    -0.4810553
H           1.4627701    -1.1439805    -1.8228250
22
238_C9H11NO_1-0-5-12 (-120,) energy =    -479.5509722
N           0.9593666    -0.4824987     0.2189900
C          -0.1531698     0.3347428    -0.2480981
H           0.0826081     0.8033931    -1.2171442
H          -0.3598855     1.1083679     0.4924021
H          -1.0565405    -0.2747104    -0.3745322
C           1.8622692     0.0975926     1.1160044
C           6.0281216     0.6725510     0.1937908
H           7.0784716     0.8486754    -0.0226592
C           5.6099752     0.4521184     1.5095263
H           6.3350949     0.4570757     2.3188215
C           4.2625197     0.2372415     1.7851810
H           3.9170412     0.0956181     2.8043590
C           3.3181921     0.2147550     0.7479796
C           3.7444320     0.4372444    -0.5681021
H           3.0234868     0.4533710    -1.3791017
C           5.0922893     0.6751748    -0.8413284
H           5.4100561     0.8637416    -1.8632719
O           1.4599452     0.6551883     2.1300863
C           1.3575155    -1.5464489    -0.6908505
H           0.5653999    -2.3059676    -0.7215388
H           2.2723665    -2.0244308    -0.3362345
H           1.5220881    -1.1964179    -1.7223608
22
238_C9H11NO_1-0-5-12 (-105,) energy =    -479.5481551
N           1.2799883    -0.5045448    -0.4927170
C           0.2531547     0.5490069    -0.4325964
H          -0.2927460     0.5681419    -1.3814686
H           0.7303513     1.5251074    -0.2940597
H          -0.4640005     0.3885612     0.3885737
C           2.0780322    -0.4818931     0.7170030
C           6.0304390     1.1458417     0.3867538
H           7.0358939     1.5522702     0.3132961
C           5.5320423     0.7366850     1.6285128
H           6.1489870     0.8261923     2.5184953
C           4.2460008     0.2155412     1.7233567
H           3.8388989    -0.1092212     2.6754432
C           3.4449850     0.0961642     0.5753680
C           3.9503106     0.5066087    -0.6670275
H           3.3255007     0.3960747    -1.5461461
C           5.2397724     1.0300673    -0.7582685
H           5.6294968     1.3436295    -1.7229203
O           1.6885128    -0.9771338     1.7601446
C           0.6407881    -1.8186713    -0.6667149
H          -0.0773342    -2.0581719     0.1309669
H           1.4079866    -2.5981352    -0.6894954
H           0.1198001    -1.8203926    -1.6297268
22
238_C9H11NO_1-0-5-12 (-90,) energy =    -479.5525222
N           1.3040887    -0.6180983    -0.4711133
C           0.4255905     0.5641650    -0.4861760
H          -0.0897462     0.6187221    -1.4505951
H           1.0204799     1.4745307    -0.3628862
H          -0.3288050     0.5254632     0.3158715
C           2.1330128    -0.6443982     0.6972965
C           5.9695728     1.2595338     0.4039777
H           6.9467279     1.7312420     0.3399993
C           5.4985267     0.7915535     1.6349258
H           6.1083384     0.9003710     2.5276975
C           4.2485405     0.1855459     1.7165384
H           3.8655871    -0.1893756     2.6602195
C           3.4558382     0.0403738     0.5670748
C           3.9344893     0.5088840    -0.6650823
H           3.3265946     0.3703520    -1.5524604
C           5.1876063     1.1160721    -0.7439448
H           5.5570701     1.4707370    -1.7023567
O           1.8486773    -1.3060557     1.6829713
C           0.4955952    -1.8402626    -0.5897240
H          -0.2554993    -1.9375547     0.2069543
H           1.1481789    -2.7158126    -0.5544796
H          -0.0123505    -1.8183951    -1.5593901
22
238_C9H11NO_1-0-5-12 (-75,) energy =    -479.5576716
N           1.2988025    -0.6912438    -0.4373675
C           0.5649235     0.5802902    -0.5256115
H           0.0930984     0.6627273    -1.5102991
H           1.2507146     1.4219180    -0.4000689
H          -0.2192578     0.6484971     0.2446218
C           2.1853565    -0.7873280     0.6614564
C           5.9089816     1.3450686     0.4193420
H           6.8593245     1.8700965     0.3690228
C           5.4517830     0.8416494     1.6409576
H           6.0451813     0.9760731     2.5412950
C           4.2369423     0.1647804     1.7041661
H           3.8706280    -0.2451784     2.6399206
C           3.4625160    -0.0103865     0.5476879
C           3.9282726     0.4923649    -0.6756507
H           3.3426701     0.3280180    -1.5740986
C           5.1483109     1.1657643    -0.7377635
H           5.5089476     1.5435287    -1.6907464
O           2.0084654    -1.5848234     1.5719321
C           0.3758719    -1.8278906    -0.5279061
H          -0.3715829    -1.8327072     0.2783656
H           0.9385316    -2.7615154    -0.4749132
H          -0.1399683    -1.7726669    -1.4919596
22
238_C9H11NO_1-0-5-12 (-60,) energy =    -479.5617358
N           1.2810453    -0.7452659    -0.3911113
C           0.6686567     0.5780394    -0.5515081
H           0.2475222     0.6724087    -1.5583734
H           1.4136043     1.3628088    -0.4120469
H          -0.1414961     0.7315651     0.1780460
C           2.2436993    -0.9101524     0.6121365
C           5.8543751     1.4212005     0.4356066
H           6.7780506     1.9929883     0.4023153
C           5.4031571     0.8900731     1.6472025
H           5.9748798     1.0486546     2.5575961
C           4.2236254     0.1508260     1.6880137
H           3.8691842    -0.2875315     2.6155018
C           3.4735315    -0.0523248     0.5210927
C           3.9349403     0.4766188    -0.6926623
H           3.3751701     0.2891534    -1.6036598
C           5.1226410     1.2073074    -0.7341421
H           5.4802654     1.6032187    -1.6808963
O           2.1695900    -1.8108410     1.4399009
C           0.2895429    -1.8198104    -0.4548636
H          -0.4349367    -1.7697194     0.3710235
H           0.7936822    -2.7854128    -0.4047726
H          -0.2490268    -1.7369469    -1.4043813
22
238_C9H11NO_1-0-5-12 (-45,) energy =    -479.5640455
N           1.2480976    -0.7495993    -0.3236419
C           0.7382362     0.5987237    -0.5675906
H           0.3829022     0.6878719    -1.6009159
H           1.5181033     1.3411048    -0.4017399
H          -0.1038807     0.8240404     0.1043837
C           2.2919226    -0.9808185     0.5627029
C           5.8234917     1.4770535     0.4507649
H           6.7290428     2.0777636     0.4343632
C           5.3758087     0.9173832     1.6504858
H           5.9325338     1.0816223     2.5691467
C           4.2206523     0.1391722     1.6691601
H           3.8756007    -0.3260240     2.5870897
C           3.4864605    -0.0689585     0.4935833
C           3.9460393     0.4868203    -0.7087182
H           3.4041748     0.2957705    -1.6303355
C           5.1120325     1.2528991    -0.7293446
H           5.4680671     1.6688075    -1.6681001
O           2.3033074    -1.9577811     1.3059424
C           0.2145819    -1.7802047    -0.3651367
H          -0.4985690    -1.6826002     0.4665952
H           0.6798304    -2.7634365    -0.3000433
H          -0.3324294    -1.6905484    -1.3095027
22
238_C9H11NO_1-0-5-12 (-30,) energy =    -479.5648361
N           1.1898187    -0.7373171    -0.2384706
C           0.7602740     0.6115192    -0.5854018
H           0.5044501     0.6763476    -1.6508475
H           1.5439437     1.3353728    -0.3685618
H          -0.1330579     0.8862105    -0.0054550
C           2.3044425    -1.0269874     0.5239866
C           5.7856742     1.5072690     0.4648016
H           6.6799616     2.1247877     0.4622670
C           5.3429149     0.9199294     1.6529166
H           5.8928065     1.0787156     2.5766431
C           4.2031378     0.1188055     1.6537643
H           3.8666862    -0.3707208     2.5621928
C           3.4753810    -0.0809192     0.4729367
C           3.9312838     0.5016762    -0.7179258
H           3.3977663     0.3189363    -1.6464529
C           5.0839261     1.2883648    -0.7218522
H           5.4363741     1.7248776    -1.6525907
O           2.3843665    -2.0592412     1.1863036
C           0.1328253    -1.7398323    -0.2822959
H          -0.6217068    -1.5667993     0.4990625
H           0.5689177    -2.7257488    -0.1278611
H          -0.3626104    -1.6975641    -1.2588570
22
238_C9H11NO_1-0-5-12 (-15,) energy =    -479.5646756
N           1.1612986    -0.7362970    -0.1564854
C           0.7906830     0.5953016    -0.6097338
H           0.6580914     0.6253893    -1.7003263
H           1.5463394     1.3261582    -0.3270449
H          -0.1616152     0.8891817    -0.1475227
C           2.3355509    -1.0750754     0.4787374
C           5.7741637     1.5209731     0.4774192
H           6.6583365     2.1527139     0.4903656
C           5.3440550     0.8932677     1.6495226
H           5.8940965     1.0342387     2.5760651
C           4.2179662     0.0734341     1.6306407
H           3.8949579    -0.4481694     2.5259792
C           3.4877777    -0.1033069     0.4472665
C           3.9317988     0.5195558    -0.7272140
H           3.3995296     0.3574469    -1.6604292
C           5.0726595     1.3237856    -0.7127279
H           5.4146617     1.7914708    -1.6321635
O           2.4718022    -2.1503720     1.0602818
C           0.0988763    -1.7304240    -0.2197853
H          -0.7242030    -1.4707275     0.4607048
H           0.5071278    -2.6969630     0.0711016
H          -0.3013477    -1.7834160    -1.2400358
22
238_C9H11NO_1-0-5-12 (0,) energy =    -479.5638804
N           1.1735033    -0.8179679    -0.1178679
C           0.6987391     0.5095915     0.2359457
H          -0.1207326     0.7906434    -0.4376305
H           1.4932580     1.2469233     0.1321130
H           0.3132674     0.5439941     1.2655902
C           2.4892484    -1.2115629    -0.2173893
C           5.7739012     1.4759095     0.5367984
H           6.6225531     2.1293867     0.7204734
C           4.7649012     1.3538149     1.4928706
H           4.8301027     1.9025898     2.4286215
C           3.6699262     0.5217569     1.2528296
H           2.8962670     0.4224826     2.0093429
C           3.5788877    -0.2044872     0.0576458
C           4.6143330    -0.1026334    -0.8817414
H           4.5630051    -0.7020873    -1.7851889
C           5.6955791     0.7452609    -0.6516485
H           6.4845782     0.8272370    -1.3943944
O           2.8030318    -2.3477701    -0.5688785
C           0.1327574    -1.8203497    -0.3025003
H          -0.4629782    -1.9322168     0.6137991
H           0.6070831    -2.7689317    -0.5487527
H          -0.5409451    -1.5236470    -1.1167842
22
238_C9H11NO_1-0-5-12 (15,) energy =    -479.5646757
N           1.1516426    -0.7829500    -0.0367215
C           0.6771021     0.5673056     0.2232902
H          -0.1017350     0.8299590    -0.5056142
H           1.4873962     1.2883706     0.1306561
H           0.2393891     0.6522399     1.2278112
C           2.4556559    -1.1449389    -0.2927647
C           5.7700584     1.4741001     0.5550668
H           6.6256552     2.1112607     0.7624681
C           4.7573532     1.3319994     1.5047018
H           4.8270557     1.8485189     2.4583129
C           3.6538085     0.5208797     1.2350620
H           2.8767783     0.4023848     1.9852073
C           3.5582097    -0.1640832     0.0159579
C           4.5961840    -0.0418282    -0.9180620
H           4.5374473    -0.6106604    -1.8405713
C           5.6869659     0.7846023    -0.6575408
H           6.4789529     0.8826772    -1.3951375
O           2.7441924    -2.2476140    -0.7551993
C           0.1078679    -1.7803175    -0.2288641
H          -0.5674300    -1.7840479     0.6359176
H           0.5748472    -2.7574413    -0.3412937
H          -0.4845749    -1.5617064    -1.1284042
22
238_C9H11NO_1-0-5-12 (30,) energy =    -479.5648363
N           1.1759240    -0.8060441     0.0640748
C           0.6711651     0.5545015     0.1996558
H          -0.0192779     0.7869661    -0.6244027
H           1.4872129     1.2746243     0.1747760
H           0.1233332     0.6739402     1.1432845
C           2.4600320    -1.1234760    -0.3334559
C           5.7914416     1.4515711     0.5705983
H           6.6506819     2.0789078     0.7924547
C           4.7810370     1.2885010     1.5198197
H           4.8565057     1.7786221     2.4868339
C           3.6738829     0.4890526     1.2326169
H           2.8982676     0.3505498     1.9806003
C           3.5720662    -0.1623838    -0.0046024
C           4.6057608    -0.0176424    -0.9397682
H           4.5391614    -0.5591985    -1.8780549
C           5.7015713     0.7958671    -0.6600908
H           6.4913838     0.9111838    -1.3975038
O           2.7205127    -2.1891332    -0.8876451
C           0.1458831    -1.8169137    -0.1392282
H          -0.6069998    -1.7273075     0.6520003
H           0.6035538    -2.8046573    -0.1081799
H          -0.3540513    -1.6955004    -1.1113982
22
238_C9H11NO_1-0-5-12 (45,) energy =    -479.5640454
N           1.1885575    -0.7740437     0.1503795
C           0.6377405     0.5801434     0.1722813
H           0.0185228     0.7626957    -0.7191572
H           1.4366662     1.3205237     0.1928483
H           0.0078937     0.7188818     1.0589050
C           2.4405619    -1.0403029    -0.3884200
C           5.8082065     1.4482872     0.6069744
H           6.6751682     2.0561328     0.8519646
C           4.7874601     1.2771093     1.5439203
H           4.8627463     1.7415445     2.5235315
C           3.6712117     0.5016741     1.2285383
H           2.8867783     0.3522377     1.9646320
C           3.5710671    -0.1164185    -0.0258813
C           4.6122627     0.0392751    -0.9511206
H           4.5411431    -0.4734614    -1.9051267
C           5.7188386     0.8266027    -0.6414325
H           6.5160946     0.9498814    -1.3694812
O           2.6579644    -2.0527103    -1.0476772
C           0.1790564    -1.8091606    -0.0527228
H          -0.6144946    -1.6756618     0.6899220
H           0.6362292    -2.7909175     0.0684465
H          -0.2657026    -1.7597154    -1.0575148
22
238_C9H11NO_1-0-5-12 (60,) energy =    -479.5617357
N           1.1979339    -0.7566634     0.2185604
C           0.5753885     0.5686815     0.1307023
H           0.0098885     0.6802923    -0.8073389
H           1.3349720     1.3507163     0.1722839
H          -0.1162114     0.7099930     0.9684183
C           2.4067551    -0.9643029    -0.4568107
C           5.8322720     1.3980854     0.6328201
H           6.7118501     1.9771934     0.9015000
C           4.7946545     1.2364403     1.5529705
H           4.8688830     1.6803742     2.5421127
C           3.6633114     0.4963410     1.2086250
H           2.8646523     0.3499943     1.9291370
C           3.5650585    -0.0943915    -0.0591463
C           4.6194587     0.0568318    -0.9707689
H           4.5424608    -0.4287451    -1.9384014
C           5.7432198     0.8053942    -0.6299250
H           6.5528005     0.9234739    -1.3451019
O           2.5664837    -1.9053648    -1.2254374
C           0.2217506    -1.8335677     0.0477863
H          -0.5659870    -1.7077337     0.7975450
H           0.7117209    -2.7969926     0.1920156
H          -0.2348384    -1.8291369    -0.9526923
22
238_C9H11NO_1-0-5-12 (75,) energy =    -479.5576716
N           1.2021456    -0.7005301     0.2652569
C           0.4832063     0.5686334     0.0767990
H          -0.0464467     0.5934963    -0.8884454
H           1.1823631     1.4078819     0.1122894
H          -0.2507059     0.6959167     0.8794115
C           2.3658199    -0.8443425    -0.5270448
C           5.8793057     1.3235374     0.6678749
H           6.7792092     1.8570308     0.9626396
C           4.8175057     1.1957828     1.5656037
H           4.8924159     1.6222913     2.5623042
C           3.6616624     0.5115722     1.1892195
H           2.8418502     0.3874112     1.8889867
C           3.5624069    -0.0538705    -0.0901084
C           4.6372785     0.0700016    -0.9830186
H           4.5518007    -0.3878272    -1.9633170
C           5.7878880     0.7576844    -0.6073709
H           6.6154192     0.8519741    -1.3053022
O           2.4515129    -1.6867727    -1.4097932
C           0.2835759    -1.8377676     0.1430448
H          -0.4866365    -1.7387718     0.9147358
H           0.8308326    -2.7689286     0.2995745
H          -0.2012798    -1.8874607    -0.8424657
22
238_C9H11NO_1-0-5-12 (90,) energy =    -479.5525222
N           1.1980020    -0.6257845     0.2955547
C           0.3609359     0.5496377    -0.0001393
H          -0.1323839     0.4660251    -0.9817373
H           0.9730976     1.4568647     0.0072460
H          -0.4086252     0.6484106     0.7723151
C           2.3270570    -0.7035896    -0.5832922
C           5.9320767     1.2391681     0.7040896
H           6.8533950     1.7202285     1.0221636
C           4.8529180     1.1467089     1.5853786
H           4.9347693     1.5504317     2.5909529
C           3.6705733     0.5276186     1.1803816
H           2.8328016     0.4284583     1.8618731
C           3.5619798    -0.0039487    -0.1128550
C           4.6518980     0.0902336    -0.9925486
H           4.5529064    -0.3331148    -1.9868876
C           5.8304578     0.7082315    -0.5858482
H           6.6712845     0.7773768    -1.2706830
O           2.3324944    -1.4147640    -1.5754534
C           0.3805002    -1.8462913     0.2370138
H          -0.3840737    -1.7804258     1.0179331
H           1.0093176    -2.7178941     0.4334464
H          -0.1111881    -1.9878279    -0.7358706
22
238_C9H11NO_1-0-5-12 (105,) energy =    -479.5481548
N           1.1698052    -0.5113873     0.3024625
C           0.2111874     0.5306670    -0.1010344
H          -0.2428368     0.3243320    -1.0837535
H           0.7154752     1.5019295    -0.1461584
H          -0.5829177     0.5936275     0.6501237
C           2.2814293    -0.5424930    -0.6273115
C           5.9843421     1.1272788     0.7434754
H           6.9294438     1.5438844     1.0822096
C           4.8974521     1.0622439     1.6176043
H           4.9962446     1.4254257     2.6369672
C           3.6846592     0.5258629     1.1857634
H           2.8329315     0.4540250     1.8527298
C           3.5543191     0.0514370    -0.1277281
C           4.6519692     0.1200250    -1.0019130
H           4.5328951    -0.2539281    -2.0136728
C           5.8604221     0.6542653    -0.5675129
H           6.7074642     0.7043478    -1.2462696
O           2.2039398    -1.0914036    -1.7125299
C           0.4979865    -1.8197193     0.3501415
H          -0.2762499    -1.7784950     1.1232945
H           1.2209055    -2.5921040     0.6285297
H           0.0355096    -2.1025127    -0.6067284
22
238_C9H11NO_1-0-5-12 (120,) energy =    -479.5509721
N           1.0598154    -0.5289559    -0.4500710
C          -0.1362723     0.2984663    -0.3557983
H          -1.0408732    -0.3134686    -0.4593336
H          -0.1230130     1.0336262    -1.1613428
H          -0.1813023     0.8151557     0.6164395
C           2.1810573     0.0173188    -1.0830039
C           5.9198247     0.6779280     0.9462473
H           6.8672052     0.8748017     1.4409943
C           4.7304274     0.7193726     1.6748984
H           4.7478582     0.9587708     2.7347581
C           3.5134441     0.4549655     1.0448021
H           2.5929215     0.5013678     1.6177414
C           3.4745791     0.1667868    -0.3258243
C           4.6731697     0.1504382    -1.0547362
H           4.6278076    -0.0424309    -2.1219120
C           5.8892795     0.3918563    -0.4219144
H           6.8128140     0.3663765    -0.9939823
O           2.0830287     0.5218476    -2.1951931
C           1.1810021    -1.5435269     0.5864530
H           1.0470887    -1.1423612     1.6036727
H           2.1576407    -2.0273800     0.5296422
H           0.4107521    -2.3098074     0.4289148
22
238_C9H11NO_1-0-5-12 (135,) energy =    -479.5568951
N           1.0737973    -0.4647114    -0.3601725
C          -0.2215090     0.1946989    -0.4415929
H          -1.0148302    -0.5186383    -0.7002301
H          -0.1773257     0.9607267    -1.2157251
H          -0.4761020     0.6542402     0.5253834
C           2.1598069     0.1129077    -1.0021886
C           5.9759702     0.6217663     0.9262003
H           6.9439229     0.7795199     1.3944677
C           4.8108548     0.6826611     1.6918849
H           4.8677756     0.8987780     2.7553977
C           3.5678271     0.4692884     1.0940711
H           2.6662478     0.5324740     1.6954244
C           3.4785341     0.2103962    -0.2800116
C           4.6526805     0.1764434    -1.0463631
H           4.5702295     0.0105312    -2.1158493
C           5.8942045     0.3677060    -0.4459549
H           6.7984627     0.3284848    -1.0472990
O           2.0311351     0.6721340    -2.0873238
C           1.1868699    -1.4774117     0.6758721
H           0.9613749    -1.0842450     1.6793820
H           2.1913746    -1.9022148     0.6843401
H           0.4739716    -2.2865237     0.4684351
22
238_C9H11NO_1-0-5-12 (150,) energy =    -479.5615872
N           1.0715486    -0.3734730    -0.2764115
C          -0.2740151     0.1096882    -0.5458335
H          -0.9119002    -0.6843215    -0.9577516
H          -0.2154488     0.9207170    -1.2709253
H          -0.7335431     0.4695237     0.3852427
C           2.1369959     0.2083053    -0.9342954
C           6.0241656     0.5472781     0.8883221
H           7.0111750     0.6594092     1.3291673
C           4.8855114     0.6466149     1.6890517
H           4.9824520     0.8474268     2.7526857
C           3.6177111     0.4932066     1.1257748
H           2.7359034     0.5877453     1.7524088
C           3.4774466     0.2529401    -0.2476147
C           4.6258463     0.1822250    -1.0490015
H           4.5053935     0.0343828    -2.1175101
C           5.8914526     0.3147845    -0.4835125
H           6.7751541     0.2468655    -1.1122646
O           1.9914287     0.7885374    -2.0079317
C           1.1776687    -1.4046059     0.7411976
H           0.8573903    -1.0447912     1.7303554
H           2.2037414    -1.7649121     0.8145194
H           0.5340772    -2.2524460     0.4696719
22
238_C9H11NO_1-0-5-12 (165,) energy =    -479.5643664
N           1.0513357    -0.2945833    -0.1481689
C          -0.3056140    -0.0153408    -0.5955834
H          -0.7223826    -0.8538708    -1.1718189
H          -0.2924446     0.8693769    -1.2306606
H          -0.9483838     0.1564094     0.2766037
C           2.0973960     0.2912873    -0.8287067
C           6.0534856     0.4885641     0.8619802
H           7.0584646     0.5610914     1.2692094
C           4.9475836     0.6350980     1.7006835
H           5.0882502     0.8333918     2.7599058
C           3.6564768     0.5336913     1.1803832
H           2.7992959     0.6659874     1.8343418
C           3.4603611     0.2955932    -0.1868297
C           4.5766761     0.1791990    -1.0265784
H           4.4144722     0.0360807    -2.0901846
C           5.8651858     0.2608437    -0.5039874
H           6.7236092     0.1571812    -1.1622184
O           1.9284824     0.8752691    -1.8974962
C           1.1787566    -1.3702156     0.8227902
H           0.7362337    -1.0922389     1.7893679
H           2.2258363    -1.6273051     0.9772214
H           0.6549507    -2.2648567     0.4574594
22
238_C9H11NO_1-0-5-12 (180,) energy =    -479.5646490
N           1.0153576    -0.2189584    -0.0647503
C          -0.3059028    -0.1372777    -0.6761145
H          -0.4901977    -0.9907779    -1.3447768
H          -0.3740048     0.7806105    -1.2579155
H          -1.0692831    -0.1401229     0.1098994
C           2.0537735     0.4081725    -0.7233512
C           6.0694479     0.4007773     0.8353916
H           7.0903167     0.4184486     1.2076024
C           5.0026986     0.6185228     1.7088695
H           5.1903142     0.8180049     2.7605505
C           3.6912351     0.5877928     1.2326265
H           2.8650025     0.7746299     1.9131081
C           3.4352685     0.3473893    -0.1246837
C           4.5135989     0.1628295    -1.0004614
H           4.3102259     0.0221360    -2.0573129
C           5.8216659     0.1734676    -0.5207808
H           6.6496629     0.0155638    -1.2066151
O           1.8738548     1.0288013    -1.7691493
C           1.1752742    -1.3240043     0.8724909
H           0.5918172    -1.1454877     1.7848853
H           2.2204997    -1.4559975     1.1448678
H           0.8165741    -2.2598351     0.4196009
