22
238_C9H11NO_0-5-12-10 (-165,) energy =    -479.5632397
N           1.0836553    -0.6081296    -0.1718311
C           1.2173143    -0.2834417    -1.5895533
H           2.2566382    -0.0845923    -1.8465088
H           0.6117187     0.5932332    -1.8534190
H           0.8737979    -1.1294924    -2.2022266
C           2.1611877    -0.8837969     0.6527929
C           5.8008441     1.4233361     0.5476575
H           6.7223533     1.9994174     0.5584790
C           5.7621999     0.1496510     1.1209812
H           6.6526025    -0.2663909     1.5846133
C           4.5784106    -0.5830980     1.1143546
H           4.5221168    -1.5603736     1.5818919
C           3.4234470    -0.0724065     0.5031702
C           3.4620491     1.2223611    -0.0366203
H           2.5608818     1.6730393    -0.4391232
C           4.6451792     1.9621126    -0.0192748
H           4.6586782     2.9653251    -0.4368761
O           2.0616773    -1.6885448     1.5768473
C          -0.1794377    -1.2503426     0.1745995
H          -1.0013523    -0.6576905    -0.2412200
H          -0.2734007    -1.3033614     1.2586890
H          -0.2439419    -2.2721388    -0.2271548
22
238_C9H11NO_0-5-12-10 (-150,) energy =    -479.5647057
N           1.0912168    -0.6411362    -0.1783300
C           1.3078099    -0.3455084    -1.5893325
H           2.3482768    -0.0850405    -1.7759129
H           0.6699279     0.4848334    -1.9193823
H           1.0602534    -1.2256394    -2.2003510
C           2.1013186    -0.7942705     0.7509930
C           5.7993360     1.3979612     0.4851374
H           6.7374987     1.9454231     0.4498871
C           5.7645789     0.0988174     0.9987263
H           6.6754365    -0.3658911     1.3664954
C           4.5599757    -0.5981522     1.0541710
H           4.5106486    -1.5944695     1.4814336
C           3.3799599    -0.0191276     0.5667570
C           3.4188779     1.2919500     0.0708324
H           2.5028429     1.7735978    -0.2583764
C           4.6227458     1.9967903     0.0322746
H           4.6390588     3.0161778    -0.3440231
O           1.9513485    -1.4883113     1.7546803
C          -0.1878724    -1.2740997     0.1182140
H          -0.9928428    -0.6837152    -0.3336477
H          -0.3221917    -1.3218990     1.1979476
H          -0.2373338    -2.2967713    -0.2835582
22
238_C9H11NO_0-5-12-10 (-135,) energy =    -479.5647214
N           1.1055468    -0.6901966    -0.1894016
C           1.3948543    -0.4193030    -1.5899306
H           2.4291463    -0.1049908    -1.7179116
H           0.7355835     0.3670284    -1.9811554
H           1.2316532    -1.3258857    -2.1902171
C           2.0376903    -0.7010014     0.8258609
C           5.7934270     1.3700998     0.4269080
H           6.7462202     1.8874889     0.3526891
C           5.7467676     0.0496704     0.8814834
H           6.6632724    -0.4623786     1.1620815
C           4.5240233    -0.6101595     0.9881617
H           4.4726956    -1.6245226     1.3715307
C           3.3367327     0.0337361     0.6156176
C           3.3892271     1.3595838     0.1645865
H           2.4702555     1.8758330    -0.0999952
C           4.6120680     2.0266594     0.0778178
H           4.6408966     3.0593151    -0.2595914
O           1.8268518    -1.2653113     1.8973850
C          -0.1859111    -1.3150450     0.0625712
H          -0.9811721    -0.7072351    -0.3852144
H          -0.3358376    -1.3926511     1.1383308
H          -0.2328807    -2.3230202    -0.3742160
22
238_C9H11NO_0-5-12-10 (-120,) energy =    -479.5638406
N           1.1221460    -0.7414393    -0.1879156
C           1.4799189    -0.5083974    -1.5777349
H           2.5032216    -0.1455278    -1.6569664
H           0.8075914     0.2301479    -2.0351343
H           1.3951881    -1.4421515    -2.1515217
C           1.9704801    -0.6048997     0.8870283
C           5.7872423     1.3385539     0.4112655
H           6.7539530     1.8253825     0.3144017
C           5.7137688    -0.0051051     0.7864273
H           6.6234638    -0.5666187     0.9816956
C           4.4735348    -0.6277907     0.9210719
H           4.4090269    -1.6640508     1.2397970
C           3.2949427     0.0829217     0.6624516
C           3.3736244     1.4290438     0.2828285
H           2.4617951     1.9887036     0.0902211
C           4.6151080     2.0561567     0.1665721
H           4.6659697     3.1045155    -0.1153304
O           1.6849300    -1.0217898     2.0070038
C          -0.1811852    -1.3534740     0.0277020
H          -0.9663591    -0.7332264    -0.4226663
H          -0.3484497    -1.4450421     1.0998957
H          -0.2253412    -2.3516525    -0.4299572
22
238_C9H11NO_0-5-12-10 (-105,) energy =    -479.5628526
N           1.2368153    -0.8427290    -0.1253659
C           1.2947513    -0.7993587     1.3259230
H           1.3090661    -1.8148056     1.7455160
H           0.4119760    -0.2814995     1.7258655
H           2.1873337    -0.2717765     1.6585177
C           2.1744775    -0.3038725    -0.9735613
C           5.7700931     1.4496043     0.6357647
H           6.6834030     1.8963853     1.0192652
C           4.7201160     2.2631185     0.2044352
H           4.8141340     3.3448116     0.2511188
C           3.5494792     1.6911524    -0.2941820
H           2.7392648     2.3234591    -0.6467842
C           3.4155247     0.2988570    -0.3553847
C           4.4697913    -0.5133235     0.0805439
H           4.3728600    -1.5948913     0.0300429
C           5.6442785     0.0607782     0.5693328
H           6.4606209    -0.5771410     0.8976702
O           2.0327776    -0.2901141    -2.1932825
C           0.0445995    -1.4550176    -0.6929778
H          -0.0555760    -2.4906696    -0.3428384
H           0.1333823    -1.4394981    -1.7784379
H          -0.8550458    -0.9011967    -0.3922248
22
238_C9H11NO_0-5-12-10 (-90,) energy =    -479.5625408
N           1.2096259    -0.8117259    -0.1098883
C           1.2177417    -0.6735882     1.3363536
H           1.1351054    -1.6580424     1.8176699
H           0.3673266    -0.0626825     1.6691201
H           2.1394621    -0.1991863     1.6700982
C           2.2278296    -0.4244874    -0.9471155
C           5.7669784     1.4560935     0.6465785
H           6.6693666     1.9315826     1.0213221
C           4.6479389     2.2279050     0.3282919
H           4.6773451     3.3072747     0.4517465
C           3.4894346     1.6174491    -0.1540976
H           2.6223638     2.2211743    -0.4092631
C           3.4400742     0.2278200    -0.3197427
C           4.5674354    -0.5414815    -0.0071503
H           4.5403028    -1.6185262    -0.1502050
C           5.7240102     0.0708704     0.4769569
H           6.5938890    -0.5346248     0.7172961
O           2.1858717    -0.5901376    -2.1628014
C           0.0278302    -1.4402534    -0.6811115
H          -0.0828345    -2.4668871    -0.3067193
H           0.1379679    -1.4580958    -1.7646512
H          -0.8737666    -0.8757447    -0.4096075
22
238_C9H11NO_0-5-12-10 (-75,) energy =    -479.5631762
N           1.1947802    -0.7835888    -0.1067039
C           1.1357902    -0.5507453     1.3264805
H           0.9494349    -1.4946669     1.8576358
H           0.3206439     0.1426748     1.5749946
H           2.0737565    -0.1297803     1.6853573
C           2.2883949    -0.5436495    -0.9043071
C           5.7778641     1.4665712     0.6316263
H           6.6702527     1.9739100     0.9881522
C           4.5950722     2.1823805     0.4392437
H           4.5653971     3.2502917     0.6387560
C           3.4476199     1.5300541    -0.0147588
H           2.5282001     2.0899322    -0.1667038
C           3.4750291     0.1553708    -0.2817218
C           4.6712588    -0.5524629    -0.1110626
H           4.7033250    -1.6111106    -0.3528207
C           5.8131655     0.0976879     0.3560224
H           6.7339422    -0.4625312     0.4951879
O           2.3328662    -0.8804666    -2.0844455
C           0.0257387    -1.4239217    -0.6913393
H          -0.1356709    -2.4156986    -0.2473165
H           0.1910055    -1.5307418    -1.7625814
H          -0.8704888    -0.8162049    -0.5113142
22
238_C9H11NO_0-5-12-10 (-60,) energy =    -479.5642546
N           1.1772363    -0.7347009    -0.1022031
C           1.0575445    -0.4406420     1.3169623
H           0.7823839    -1.3505782     1.8690054
H           0.2770652     0.3111494     1.4964078
H           2.0001412    -0.0680626     1.7143935
C           2.3389586    -0.6512033    -0.8359710
C           5.7864180     1.4795773     0.6224265
H           6.6696371     2.0155844     0.9594409
C           4.5591749     2.1386128     0.5350108
H           4.4853299     3.1914995     0.7939682
C           3.4233693     1.4481436     0.1090330
H           2.4696626     1.9646778     0.0365365
C           3.5073588     0.0933429    -0.2385065
C           4.7491596    -0.5524421    -0.1808609
H           4.8203439    -1.5892099    -0.4957721
C           5.8786669     0.1322431     0.2640692
H           6.8345650    -0.3816885     0.3194865
O           2.4470413    -1.1514052    -1.9531324
C           0.0223782    -1.3865856    -0.7032318
H          -0.1519698    -2.3731579    -0.2510957
H           0.2090119    -1.5127966    -1.7686644
H          -0.8744623    -0.7737515    -0.5491247
22
238_C9H11NO_0-5-12-10 (-45,) energy =    -479.5648581
N           1.1695423    -0.6801050    -0.1130371
C           0.9934269    -0.3555886     1.2957388
H           0.6450106    -1.2419354     1.8453253
H           0.2447463     0.4371727     1.4251180
H           1.9322594    -0.0268819     1.7379654
C           2.3847481    -0.7432285    -0.7625232
C           5.7947157     1.5070671     0.6005950
H           6.6689801     2.0693378     0.9177211
C           4.5360098     2.1102932     0.6043480
H           4.4284204     3.1467265     0.9130106
C           3.4120073     1.3859292     0.2047323
H           2.4365170     1.8642855     0.1942930
C           3.5387717     0.0532300    -0.2109957
C           4.8106301    -0.5344640    -0.2424654
H           4.9069201    -1.5520314    -0.6077945
C           5.9294499     0.1827026     0.1756635
H           6.9092260    -0.2870565     0.1600766
O           2.5345029    -1.3924747    -1.7956484
C           0.0356452    -1.3538553    -0.7319637
H          -0.1161122    -2.3567214    -0.3070248
H           0.2224278    -1.4537949    -1.8001203
H          -0.8734888    -0.7651053    -0.5628847
22
238_C9H11NO_0-5-12-10 (-30,) energy =    -479.5643402
N           1.1587660    -0.6263764    -0.1397892
C           0.9247124    -0.2788364     1.2580370
H           0.5112076    -1.1440262     1.7964511
H           0.2063274     0.5468116     1.3428275
H           1.8529256     0.0109990     1.7474628
C           2.4126533    -0.8194261    -0.6907014
C           5.8112917     1.5176835     0.5578112
H           6.6828646     2.0955256     0.8537611
C           4.5361963     2.0776617     0.6513002
H           4.4125973     3.0964829     1.0086905
C           3.4154734     1.3340889     0.2792665
H           2.4305629     1.7883783     0.3275768
C           3.5604598     0.0253727    -0.2034479
C           4.8474372    -0.5198819    -0.3153218
H           4.9502591    -1.5219781    -0.7185607
C           5.9643714     0.2167826     0.0712297
H           6.9557751    -0.2201673    -0.0127940
O           2.5853751    -1.5988793    -1.6258050
C           0.0488795    -1.3262982    -0.7760339
H          -0.0794157    -2.3409037    -0.3712768
H           0.2384421    -1.4058753    -1.8457065
H          -0.8734475    -0.7615691    -0.6013247
22
238_C9H11NO_0-5-12-10 (-15,) energy =    -479.5623897
N           1.1539109    -0.6054083    -0.1500545
C           0.8476733    -0.2106971     1.2241001
H           0.3438789    -1.0368366     1.7461392
H           0.1811178     0.6610943     1.2473547
H           1.7570960     0.0252504     1.7743575
C           2.4369161    -0.8902931    -0.5924422
C           5.8333836     1.5264367     0.5206130
H           6.7056999     2.1158105     0.7905780
C           4.5515119     2.0411109     0.7196921
H           4.4222590     3.0371710     1.1346030
C           3.4297560     1.2834543     0.3807765
H           2.4429789     1.7172479     0.5013539
C           3.5773494     0.0047518    -0.1777995
C           4.8712488    -0.4979733    -0.3831099
H           4.9725347    -1.4826899    -0.8265053
C           5.9900680     0.2549152    -0.0366835
H           6.9853560    -0.1490502    -0.2013392
O           2.6325638    -1.7773744    -1.4212125
C           0.0748896    -1.3404194    -0.8028334
H          -0.0537046    -2.3467387    -0.3783495
H           0.2959555    -1.4443734    -1.8646565
H          -0.8577377    -0.7815452    -0.6714728
22
238_C9H11NO_0-5-12-10 (0,) energy =    -479.5591685
N           1.1867873    -0.8218632     0.1147888
C           0.5538627     0.4419518     0.4960637
H          -0.3560468     0.5932972    -0.1010096
H           1.2147180     1.2856730     0.3029126
H           0.2679042     0.4461102     1.5560560
C           2.3997215    -0.8901971    -0.5588504
C           5.8889944     1.3847683     0.5954640
H           6.7803672     1.9498896     0.8548298
C           4.7377176     1.4940303     1.3756119
H           4.7310359     2.1378170     2.2511152
C           3.5892083     0.7744510     1.0425261
H           2.7297151     0.8407488     1.6985173
C           3.5795936    -0.0812758    -0.0706403
C           4.7452418    -0.1793359    -0.8481893
H           4.7255091    -0.8363413    -1.7105082
C           5.8902387     0.5389828    -0.5161658
H           6.7835471     0.4428852    -1.1274862
O           2.5701837    -1.7331828    -1.4377293
C           0.2284318    -1.8765287    -0.2058481
H          -0.5119748    -1.9275490     0.5992449
H           0.7485841    -2.8307601    -0.2864876
H          -0.2924989    -1.6887475    -1.1558060
22
238_C9H11NO_0-5-12-10 (15,) energy =    -479.5623897
N           1.1889197    -0.8136494     0.1065676
C           0.6033943     0.4981779     0.3788990
H          -0.2255248     0.6886076    -0.3178375
H           1.3391710     1.2894973     0.2448721
H           0.2058074     0.5509808     1.4006645
C           2.4283061    -0.9850128    -0.4913174
C           5.8454231     1.4168248     0.5901219
H           6.7196677     2.0118735     0.8406922
C           4.7373291     1.4088778     1.4385199
H           4.7499855     1.9885587     2.3576557
C           3.6106703     0.6515782     1.1154777
H           2.7769123     0.6228283     1.8086295
C           3.5849928    -0.1216033    -0.0551709
C           4.7090799    -0.1140258    -0.8950805
H           4.6818669    -0.7249698    -1.7909224
C           5.8296368     0.6485947    -0.5767043
H           6.6918707     0.6443356    -1.2380933
O           2.6262065    -1.9159854    -1.2698993
C           0.1995984    -1.8521986    -0.1642449
H          -0.5556811    -1.8303254     0.6285132
H           0.6890213    -2.8255167    -0.1803969
H          -0.3001999    -1.7026355    -1.1323504
22
238_C9H11NO_0-5-12-10 (30,) energy =    -479.5643402
N           1.1926010    -0.8105393     0.0882677
C           0.6517688     0.5296631     0.2904757
H          -0.1079700     0.7478566    -0.4741256
H           1.4353488     1.2812734     0.2116960
H           0.1747837     0.6165690     1.2753036
C           2.4611190    -1.0686873    -0.3987864
C           5.8149762     1.4501904     0.5904321
H           6.6767565     2.0685544     0.8272621
C           4.7555601     1.3514663     1.4938039
H           4.7949157     1.8827464     2.4410078
C           3.6447710     0.5642555     1.1875719
H           2.8390547     0.4702055     1.9091934
C           3.5885258    -0.1438798    -0.0216229
C           4.6680544    -0.0564076    -0.9121709
H           4.6273718    -0.6324130    -1.8308302
C           5.7693112     0.7420736    -0.6133204
H           6.5959634     0.8077979    -1.3155965
O           2.6987632    -2.0813370    -1.0544289
C           0.1810382    -1.8350880    -0.1433477
H          -0.5769655    -1.7696979     0.6448593
H           0.6517107    -2.8172316    -0.1251334
H          -0.3139678    -1.7070067    -1.1171396
22
238_C9H11NO_0-5-12-10 (45,) energy =    -479.5648581
N           1.1736768    -0.7916064     0.0286491
C           0.6795883     0.5691318     0.1878635
H          -0.0258031     0.8105933    -0.6203670
H           1.4984842     1.2854432     0.1517239
H           0.1503865     0.6847536     1.1429782
C           2.4678004    -1.1262343    -0.3118657
C           5.7817481     1.4785925     0.5725837
H           6.6371452     2.1126580     0.7900948
C           4.7756748     1.3103179     1.5253482
H           4.8505971     1.8031542     2.4910298
C           3.6731553     0.5024680     1.2432200
H           2.9001222     0.3617545     1.9936458
C           3.5717445    -0.1518184     0.0076597
C           4.6020432    -0.0031620    -0.9306089
H           4.5381583    -0.5481870    -1.8671166
C           5.6925312     0.8193494    -0.6562728
H           6.4793301     0.9383122    -1.3963241
O           2.7438052    -2.2091306    -0.8241327
C           0.1395276    -1.7979576    -0.1728611
H          -0.5987903    -1.7268668     0.6343136
H           0.5999249    -2.7848064    -0.1718463
H          -0.3793185    -1.6539909    -1.1317330
22
238_C9H11NO_0-5-12-10 (60,) energy =    -479.5642543
N           1.1705221    -0.8138399    -0.0240078
C           0.7172729     0.5635601     0.0864623
H           0.0695215     0.8172661    -0.7647332
H           1.5633696     1.2486436     0.0920652
H           0.1370076     0.7118029     1.0072344
C           2.4775964    -1.2086935    -0.1991965
C           5.7674078     1.4722284     0.5368495
H           6.6184822     2.1222873     0.7213822
C           4.8329190     1.2395890     1.5471598
H           4.9590149     1.6995861     2.5236748
C           3.7359288     0.4103815     1.3078140
H           3.0121179     0.2261762     2.0976167
C           3.5678923    -0.1976271     0.0566608
C           4.5279623     0.0133396    -0.9414257
H           4.4199808    -0.4966298    -1.8939960
C           5.6121075     0.8576463    -0.7083018
H           6.3435438     1.0267244    -1.4940238
O           2.7781262    -2.3490450    -0.5444463
C           0.1175399    -1.8044174    -0.1969030
H          -0.5969638    -1.7384069     0.6330020
H           0.5709585    -2.7942437    -0.2205729
H          -0.4284309    -1.6383711    -1.1363254
22
238_C9H11NO_0-5-12-10 (75,) energy =    -479.5631762
N           1.1754877    -0.8246024    -0.0756637
C           0.7583089     0.5669980    -0.0421608
H           0.1879869     0.8148257    -0.9483367
H           1.6238307     1.2253905     0.0142005
H           0.1126226     0.7590573     0.8257436
C           2.4788515    -1.2615950    -0.0730243
C           5.7534976     1.4759040     0.5260229
H           6.5998965     2.1402315     0.6781288
C           4.9050960     1.1678135     1.5907696
H           5.0928031     1.5858289     2.5762395
C           3.8154535     0.3178024     1.3946824
H           3.1575214     0.0767812     2.2258975
C           3.5668399    -0.2324996     0.1309058
C           4.4360660     0.0600799    -0.9273786
H           4.2653538    -0.3952397    -1.8988476
C           5.5161912     0.9206317    -0.7335058
H           6.1790295     1.1498184    -1.5636636
O           2.7813714    -2.4406362    -0.2357871
C           0.1075655    -1.8006047    -0.2351691
H          -0.6145558    -1.7117426     0.5867783
H           0.5481664    -2.7966744    -0.2341991
H          -0.4263632    -1.6397492    -1.1816762
22
238_C9H11NO_0-5-12-10 (90,) energy =    -479.5625408
N           1.1828626    -0.8302893    -0.1062290
C           0.7993218     0.5688361    -0.1843766
H           0.3287973     0.7855714    -1.1535396
H           1.6710177     1.2113948    -0.0691547
H           0.0751394     0.8137475     0.6047518
C           2.4662817    -1.2902471     0.0638147
C           5.7364022     1.4851114     0.5174004
H           6.5784888     2.1619986     0.6337674
C           4.9981784     1.0857959     1.6331166
H           5.2657011     1.4487409     2.6219781
C           3.9174695     0.2155761     1.4838795
H           3.3494622    -0.1006275     2.3549642
C           3.5644386    -0.2608040     0.2152687
C           4.3126412     0.1356946    -0.8998391
H           4.0535874    -0.2447048    -1.8844273
C           5.3915557     1.0074926    -0.7484683
H           5.9660768     1.3099837    -1.6199619
O           2.7436339    -2.4857684     0.0937663
C           0.1022680    -1.7940621    -0.2526534
H          -0.6628610    -1.6296567     0.5172881
H           0.5185716    -2.7953188    -0.1492945
H          -0.3733515    -1.6944591    -1.2376702
22
238_C9H11NO_0-5-12-10 (105,) energy =    -479.5628526
N           1.2044959    -0.8452260    -0.1415451
C           0.8410161     0.5496700    -0.3249144
H           0.4700034     0.7245644    -1.3443049
H           1.6998660     1.1959110    -0.1505164
H           0.0433543     0.8296437     0.3770646
C           2.4559050    -1.3013519     0.1974767
C           5.7407950     1.4742027     0.5118681
H           6.5829884     2.1556321     0.5966283
C           5.1101778     0.9939545     1.6616446
H           5.4604130     1.3004393     2.6437241
C           4.0329564     0.1140092     1.5546693
H           3.5533348    -0.2742444     2.4489898
C           3.5705731    -0.2846501     0.2947301
C           4.2041248     0.2012740    -0.8557642
H           3.8523612    -0.1094947    -1.8362839
C           5.2883366     1.0733337    -0.7465692
H           5.7793096     1.4388898    -1.6446088
O           2.6886589    -2.4849595     0.4274454
C           0.1174137    -1.8045006    -0.2700118
H          -0.6573027    -1.6143449     0.4850953
H           0.5231799    -2.8053232    -0.1283982
H          -0.3436900    -1.7272989    -1.2633047
22
238_C9H11NO_0-5-12-10 (120,) energy =    -479.5638401
N           1.1899343    -0.8429521    -0.1789596
C           0.8340734     0.5418725    -0.4427976
H           0.5191600     0.6712407    -1.4871653
H           1.6784795     1.2008591    -0.2483558
H          -0.0025264     0.8468755     0.2017602
C           2.3937815    -1.2728800     0.3307466
C           5.7521239     1.4196161     0.5379722
H           6.6121234     2.0810969     0.5992840
C           5.1981380     0.8807816     1.7017195
H           5.6258494     1.1225298     2.6710452
C           4.1011507     0.0237321     1.6233474
H           3.6837705    -0.4205071     2.5222539
C           3.5354645    -0.2870835     0.3805871
C           4.0919038     0.2586191    -0.7834344
H           3.6631418     0.0133617    -1.7518138
C           5.2015371     1.1015869    -0.7047869
H           5.6349612     1.5095652    -1.6140769
O           2.5624919    -2.4188105     0.7406709
C           0.0971558    -1.7994650    -0.2825031
H          -0.6851639    -1.5820133     0.4581176
H           0.4916633    -2.7982119    -0.1013205
H          -0.3518371    -1.7492366    -1.2824183
22
238_C9H11NO_0-5-12-10 (135,) energy =    -479.5647214
N           1.1841235    -0.8129445    -0.2275918
C           0.8027246     0.5507098    -0.5646208
H           0.5587547     0.6366702    -1.6318928
H           1.6069501     1.2464442    -0.3320246
H          -0.0872583     0.8456798     0.0096831
C           2.3359527    -1.1731356     0.4382669
C           5.7713201     1.4242335     0.5161474
H           6.6525243     2.0594592     0.5475384
C           5.2860218     0.8407395     1.6893349
H           5.7891852     1.0207715     2.6355504
C           4.1631757     0.0165165     1.6475646
H           3.7973261    -0.4685277     2.5472469
C           3.4966487    -0.2117156     0.4364969
C           3.9905200     0.3726142    -0.7376911
H           3.4961197     0.1785042    -1.6858044
C           5.1274160     1.1811708    -0.6982880
H           5.5110020     1.6182864    -1.6163524
O           2.4488209    -2.2588616     1.0035123
C           0.1071275    -1.7905211    -0.3066557
H          -0.6726153    -1.5858072     0.4410804
H           0.5171552    -2.7822286    -0.1218460
H          -0.3506161    -1.7522499    -1.3023293
22
238_C9H11NO_0-5-12-10 (150,) energy =    -479.5647056
N           1.2048256    -0.8227624    -0.2725388
C           0.7828294     0.5142249    -0.6722370
H           0.6166092     0.5670066    -1.7561840
H           1.5299924     1.2558715    -0.3948028
H          -0.1610097     0.7755694    -0.1722420
C           2.2919585    -1.0896141     0.5362202
C           5.8192870     1.3824313     0.5061644
H           6.7260012     1.9815490     0.5117186
C           5.3845187     0.7576818     1.6780915
H           5.9536065     0.8673052     2.5973337
C           4.2285881    -0.0191817     1.6674837
H           3.8972605    -0.5379957     2.5611760
C           3.4732487    -0.1556103     0.4943145
C           3.9261865     0.4583174    -0.6822373
H           3.3820721     0.3161750    -1.6113463
C           5.0943839     1.2217704    -0.6756545
H           5.4416916     1.6838575    -1.5959063
O           2.3434131    -2.1038440     1.2292956
C           0.1550567    -1.8323888    -0.3301263
H          -0.6150445    -1.6610136     0.4361503
H           0.5935525    -2.8152879    -0.1631886
H          -0.3214285    -1.7976126    -1.3162204
22
238_C9H11NO_0-5-12-10 (165,) energy =    -479.5632398
N           1.2205791    -0.8282484    -0.3038793
C           0.7522516     0.4747608    -0.7686933
H           0.6584241     0.4943164    -1.8621889
H           1.4333685     1.2658420    -0.4588154
H          -0.2364569     0.6930381    -0.3397399
C           2.2361811    -0.9876470     0.6236167
C           5.8659752     1.3340625     0.4972068
H           6.7999697     1.8894753     0.4785913
C           5.4716826     0.6612061     1.6566297
H           6.1012821     0.6868062     2.5419567
C           4.2793244    -0.0573247     1.6754378
H           3.9728187    -0.6108172     2.5566484
C           3.4427199    -0.0860883     0.5495846
C           3.8650958     0.5614326    -0.6215678
H           3.2777417     0.4836924    -1.5305208
C           5.0661544     1.2715453    -0.6445499
H           5.3825421     1.7640547    -1.5601553
O           2.2244234    -1.9234001     1.4208786
C           0.2025781    -1.8724813    -0.3371204
H          -0.5788818    -1.7079116     0.4191015
H           0.6678201    -2.8381677    -0.1424588
H          -0.2640938    -1.8776918    -1.3280149
22
238_C9H11NO_0-5-12-10 (180,) energy =    -479.5601964
N           1.2294801    -0.8275127    -0.3077572
C           0.7252340     0.4256604    -0.8695602
H           0.7309845     0.4024254    -1.9670050
H           1.3191829     1.2728986    -0.5294238
H          -0.3099266     0.5922806    -0.5391559
C           2.1740187    -0.8669466     0.7085136
C           5.9116674     1.2832495     0.4934205
H           6.8726085     1.7893811     0.4535458
C           5.5492535     0.5493592     1.6253340
H           6.2310166     0.4740290     2.4682041
C           4.3201277    -0.1022871     1.6704610
H           4.0325454    -0.6959277     2.5312023
C           3.4125422    -0.0069564     0.6033687
C           3.8097695     0.6901269    -0.5493665
H           3.1824603     0.7015994    -1.4328461
C           5.0433370     1.3407259    -0.5969536
H           5.3317970     1.8779395    -1.4965290
O           2.0961790    -1.7106153     1.5990877
C           0.2429952    -1.9035557    -0.3016576
H          -0.5635979    -1.7212395     0.4232824
H           0.7298406    -2.8426444    -0.0399330
H          -0.1936347    -1.9805690    -1.3030031
