25
133_C12H11NO_11-10-20-17 (-165,) energy =    -593.8338252
C           5.1832492     1.6241503    -0.0457662
H           5.8016281     2.5164399     0.0060113
C           4.5568486     1.1345662     1.1072336
H           4.6975409     1.6293462     2.0636729
C           3.7331168     0.0284340     0.9959848
H           3.1912614    -0.3746106     1.8457893
C           3.5397455    -0.6223044    -0.2328770
C           4.2216719    -0.1628037    -1.3916853
C           5.0185740     0.9972523    -1.2728724
H           5.4856608     1.4464540    -2.1343631
N           4.0439126    -0.8566890    -2.6024444
C           3.0574697    -1.8195488    -2.6622387
H           2.9026515    -2.2403504    -3.6497766
C           2.3394281    -2.2676414    -1.6037278
H           1.5957664    -3.0440757    -1.7419936
C           2.5681483    -1.7460847    -0.2723052
O           1.9966354    -2.1636578     0.7388965
C           6.0142520     0.1090668    -4.1443980
H           6.6501707    -0.3525233    -4.8955834
H           6.5772886     0.5718303    -3.3463432
C           4.7199620    -0.6146817    -3.8760293
H           4.5786648    -1.4840123    -4.5076742
C           4.7039605     0.7131184    -4.5990493
H           4.3305393     1.5718366    -4.0493109
H           4.4625786     0.7244730    -5.6583423
25
133_C12H11NO_11-10-20-17 (-150,) energy =    -593.8356708
C           5.1637912     1.6256190    -0.0821688
H           5.8009944     2.5047350    -0.0337710
C           4.5193342     1.1606325     1.0709391
H           4.6555145     1.6671133     2.0218940
C           3.6975309     0.0523758     0.9699406
H           3.1592119    -0.3458742     1.8242020
C           3.5096757    -0.6142064    -0.2512863
C           4.1820433    -0.1590318    -1.4173969
C           5.0014700     0.9864256    -1.3031752
H           5.5081581     1.4034750    -2.1584144
N           3.9930677    -0.8537105    -2.6263902
C           3.0888668    -1.8946503    -2.6495822
H           2.9593099    -2.3541940    -3.6231631
C           2.4033044    -2.3595807    -1.5767763
H           1.7183125    -3.1919712    -1.6904712
C           2.5780431    -1.7719327    -0.2657975
O           2.0056931    -2.1734667     0.7515601
C           5.9972553     0.0001749    -4.1602002
H           6.5706078    -0.4706390    -4.9544433
H           6.6083536     0.3299620    -3.3299226
C           4.6223123    -0.5628544    -3.9125255
H           4.3454009    -1.3449906    -4.6092708
C           4.7647563     0.8016014    -4.5386416
H           4.5174440     1.6735333    -3.9433776
H           4.5050995     0.9006269    -5.5891113
25
133_C12H11NO_11-10-20-17 (-135,) energy =    -593.8358809
C           5.1339030     1.6125151    -0.1091234
H           5.7969058     2.4719729    -0.0545803
C           4.4553102     1.1743650     1.0349693
H           4.5810065     1.6900920     1.9823849
C           3.6297928     0.0687903     0.9342652
H           3.0852716    -0.3238604     1.7871866
C           3.4561278    -0.6097959    -0.2824254
C           4.1316121    -0.1577456    -1.4477043
C           4.9813130     0.9646217    -1.3267417
H           5.5392475     1.3412792    -2.1688720
N           3.9344342    -0.8451559    -2.6592539
C           3.1357312    -1.9691269    -2.6533521
H           3.0518477    -2.4645962    -3.6141983
C           2.4775568    -2.4552039    -1.5727295
H           1.8655992    -3.3450439    -1.6659880
C           2.5672596    -1.8006970    -0.2849839
O           1.9748506    -2.1862942     0.7270461
C           5.9494848    -0.1160550    -4.2233846
H           6.4535921    -0.6023716    -5.0540508
H           6.6011259     0.1000482    -3.3844684
C           4.5224822    -0.5153812    -3.9546447
H           4.1182081    -1.2021994    -4.6889448
C           4.8111758     0.8500287    -4.5179642
H           4.6960867     1.7271769    -3.8935179
H           4.5254364     1.0169787    -5.5530558
25
133_C12H11NO_11-10-20-17 (-120,) energy =    -593.8343731
C           5.1159053     1.6051691    -0.1034459
H           5.7992589     2.4476051    -0.0358365
C           4.4111051     1.1782847     1.0292579
H           4.5292528     1.6932021     1.9780911
C           3.5831369     0.0750031     0.9202046
H           3.0357785    -0.3211820     1.7696994
C           3.4200106    -0.6022119    -0.2986865
C           4.0958339    -0.1401251    -1.4593245
C           4.9694163     0.9611181    -1.3238674
H           5.5663488     1.3073358    -2.1523826
N           3.8898545    -0.8108208    -2.6781953
C           3.1865607    -1.9972692    -2.6604048
H           3.1440245    -2.5075170    -3.6164362
C           2.5530220    -2.5108498    -1.5778783
H           2.0056860    -3.4428221    -1.6607905
C           2.5708827    -1.8216693    -0.3041794
O           1.9643967    -2.2108134     0.6979097
C           5.9041725    -0.2501628    -4.2940596
H           6.3214616    -0.7611660    -5.1571337
H           6.5923193    -0.1520834    -3.4601491
C           4.4450872    -0.4527969    -3.9806057
H           3.9118294    -1.0257480    -4.7311977
C           4.9036057     0.8790090    -4.5051530
H           4.9458773     1.7511513    -3.8672676
H           4.5957555     1.1107838    -5.5214056
25
133_C12H11NO_11-10-20-17 (-105,) energy =    -593.8323858
C           4.7155365     1.8643482    -0.1435901
H           5.1056139     2.8776867    -0.0958553
C           4.4156797     1.1704837     1.0361962
H           4.5960557     1.6270205     2.0049823
C           3.8419191    -0.0855969     0.9420411
H           3.5347082    -0.6459331     1.8195371
C           3.6027741    -0.6899049    -0.3024038
C           3.9857240    -0.0216015    -1.4952167
C           4.4973536     1.2892791    -1.3875991
H           4.6635283     1.8855644    -2.2700523
N           3.7714501    -0.6618171    -2.7300992
C           2.9653464    -1.7819845    -2.7489884
H           2.7552970    -2.1632835    -3.7431685
C           2.4961921    -2.4208531    -1.6496135
H           1.8648289    -3.2957017    -1.7552572
C           2.8641136    -1.9797884    -0.3180931
O           2.5624846    -2.5833965     0.7149850
C           5.8921956    -0.6790846    -4.2534064
H           6.1778468    -1.2506000    -5.1326446
H           6.4950421    -0.8777686    -3.3714999
C           4.4254800    -0.3987713    -4.0111667
H           3.7556133    -0.6845505    -4.8158579
C           5.3632147     0.7233597    -4.3948286
H           5.7197122     1.4457105    -3.6760934
H           5.2191422     1.1336720    -5.3910450
25
133_C12H11NO_11-10-20-17 (-90,) energy =    -593.8392543
C           4.5633399     1.9668355    -0.1720905
H           4.8842654     3.0050759    -0.1491677
C           4.2099825     1.3158821     1.0172276
H           4.2789977     1.8331867     1.9696975
C           3.7298368     0.0190542     0.9501639
H           3.3866894    -0.5139058     1.8313482
C           3.6316884    -0.6603321    -0.2744316
C           4.0740673    -0.0303588    -1.4662147
C           4.4933587     1.3148354    -1.3960686
H           4.7237121     1.8661896    -2.2955121
N           4.0380284    -0.7687772    -2.6697239
C           3.2118330    -1.8771990    -2.7113680
H           3.0718337    -2.2815748    -3.7093291
C           2.6900342    -2.4903642    -1.6224830
H           2.0869787    -3.3844511    -1.7321434
C           2.9573210    -1.9855017    -0.2868511
O           2.6117258    -2.5638615     0.7462859
C           5.6484883    -0.7739349    -4.6617953
H           5.6035690    -0.9422196    -5.7346318
H           6.2223650    -1.5141100    -4.1121982
C           4.3983354    -0.2438292    -3.9767083
H           3.5462387     0.0130031    -4.6026629
C           5.6370256     0.6182170    -4.1327915
H           6.2483210     0.8090591    -3.2593479
H           5.5753629     1.4513342    -4.8276049
25
133_C12H11NO_11-10-20-17 (-75,) energy =    -593.8453750
C           4.5323149     1.9924857    -0.1718886
H           4.8719799     3.0246249    -0.1445451
C           4.1199441     1.3577802     1.0080078
H           4.1533601     1.8867577     1.9560050
C           3.6441713     0.0590612     0.9406340
H           3.2772889    -0.4657148     1.8171310
C           3.5922548    -0.6352816    -0.2783763
C           4.0638192    -0.0103545    -1.4598787
C           4.5041905     1.3276721    -1.3901418
H           4.7994255     1.8539476    -2.2871469
N           4.0601492    -0.7417499    -2.6638382
C           3.3346968    -1.9155221    -2.7134515
H           3.2585098    -2.3412611    -3.7089741
C           2.8166878    -2.5430586    -1.6302491
H           2.2930045    -3.4856260    -1.7420406
C           2.9690457    -1.9849325    -0.2973666
O           2.5849603    -2.5510162     0.7291824
C           5.4833308    -0.7913316    -4.7709416
H           5.3455381    -0.8274647    -5.8480508
H           5.9664844    -1.6668346    -4.3474730
C           4.3871348    -0.1472578    -3.9448529
H           3.5417393     0.2936865    -4.4713883
C           5.7331152     0.5259462    -4.1108588
H           6.4007960     0.5330786    -3.2562018
H           5.7714530     1.4240397    -4.7210430
25
133_C12H11NO_11-10-20-17 (-60,) energy =    -593.8487633
C           4.4962373     2.0365949    -0.1513985
H           4.8403465     3.0671373    -0.1211949
C           4.0656841     1.4061075     1.0250709
H           4.0831988     1.9406778     1.9703840
C           3.6041310     0.1017811     0.9615835
H           3.2398564    -0.4230511     1.8391387
C           3.5729382    -0.6006022    -0.2534667
C           4.0403377     0.0299528    -1.4323133
C           4.4850633     1.3664070    -1.3665870
H           4.8073812     1.8787922    -2.2636150
N           4.0377273    -0.6889078    -2.6387784
C           3.4202209    -1.9195673    -2.6825231
H           3.3820883    -2.3586717    -3.6736708
C           2.9323437    -2.5667024    -1.5953952
H           2.4835450    -3.5480030    -1.6994142
C           3.0066432    -1.9750313    -0.2703762
O           2.6166631    -2.5410784     0.7543391
C           5.3426704    -0.7935335    -4.8171613
H           5.1485500    -0.7374314    -5.8843838
H           5.7318320    -1.7494659    -4.4794765
C           4.3905480    -0.0659982    -3.8960037
H           3.5890783     0.5134833    -4.3534669
C           5.8026631     0.4371001    -4.0927326
H           6.4968631     0.3019003    -3.2695200
H           5.9356108     1.3596221    -4.6509016
25
133_C12H11NO_11-10-20-17 (-45,) energy =    -593.8497399
C           4.4474420     2.0703738    -0.1462799
H           4.7895194     3.1014621    -0.1127523
C           4.0066665     1.4392851     1.0264591
H           4.0094304     1.9766187     1.9703777
C           3.5631112     0.1284231     0.9639664
H           3.2040956    -0.4001116     1.8414929
C           3.5517045    -0.5780135    -0.2489530
C           4.0115916     0.0600797    -1.4258849
C           4.4528862     1.3974375    -1.3598570
H           4.7941238     1.9035561    -2.2542842
N           4.0101469    -0.6481630    -2.6359258
C           3.4862969    -1.9191436    -2.6737129
H           3.4737911    -2.3670230    -3.6606402
C           3.0249489    -2.5824172    -1.5834999
H           2.6363490    -3.5894477    -1.6836148
C           3.0381446    -1.9728946    -0.2647347
O           2.6490055    -2.5440787     0.7577249
C           5.2270347    -0.7842349    -4.8748919
H           4.9983863    -0.6257353    -5.9245761
H           5.5153998    -1.8011303    -4.6271587
C           4.4210722    -0.0072776    -3.8654755
H           3.6895989     0.6990672    -4.2574009
C           5.8764924     0.3255362    -4.0910662
H           6.5753124     0.0411425    -3.3104271
H           6.1107241     1.2602896    -4.5927372
25
133_C12H11NO_11-10-20-17 (-30,) energy =    -593.8489077
C           6.1503233     0.5158321     0.2992064
H           7.1547772     0.8847066     0.4895560
C           5.3577380     0.0589506     1.3626886
H           5.7443804     0.0731066     2.3775942
C           4.0805040    -0.4103482     1.1025800
H           3.4299886    -0.7757104     1.8910239
C           3.5666999    -0.4337607    -0.2034361
C           4.3713479     0.0298703    -1.2713245
C           5.6719017     0.5034335    -1.0033172
H           6.3032567     0.8534213    -1.8108320
N           3.8594914     0.0165184    -2.5764474
C           2.5832594    -0.4428223    -2.7951261
H           2.2576345    -0.3914755    -3.8266881
C           1.7652350    -0.9068855    -1.8160241
H           0.7668688    -1.2511789    -2.0607307
C           2.1902310    -0.9476715    -0.4278867
O           1.4829193    -1.3634188     0.4942014
C           4.5272566    -0.0834867    -5.0574506
H           4.5873164     0.6155982    -5.8861058
H           3.8377907    -0.9057256    -5.2190129
C           4.6823455     0.4814180    -3.6719197
H           4.8920114     1.5488656    -3.6158311
C           5.7717387    -0.3839995    -4.2555821
H           5.8694197    -1.3890203    -3.8561119
H           6.7099390     0.0903782    -4.5294762
25
133_C12H11NO_11-10-20-17 (-15,) energy =    -593.8469392
C           6.1368093     0.5685930     0.3250222
H           7.1376353     0.9443889     0.5207522
C           5.3346846     0.1232771     1.3859307
H           5.7082733     0.1570848     2.4052335
C           4.0673111    -0.3665649     1.1162519
H           3.4126858    -0.7331132     1.9007253
C           3.5708470    -0.4159961    -0.1956486
C           4.3789559     0.0495848    -1.2602810
C           5.6743725     0.5328135    -0.9828949
H           6.3205578     0.8657355    -1.7857011
N           3.8760397     0.0256335    -2.5703149
C           2.6325683    -0.5092709    -2.8017107
H           2.3155949    -0.4906346    -3.8362755
C           1.8177659    -0.9888629    -1.8271542
H           0.8400467    -1.3807920    -2.0832692
C           2.2141359    -0.9752931    -0.4307017
O           1.5024291    -1.3886848     0.4891294
C           4.4985943     0.0464556    -5.0853127
H           4.6402124     0.8149129    -5.8392238
H           3.7191171    -0.6678014    -5.3275556
C           4.7358481     0.4476929    -3.6569675
H           5.0748161     1.4728632    -3.5237579
C           5.7033621    -0.4868610    -4.3380472
H           5.6702860    -1.5308280    -4.0401688
H           6.6944707    -0.1148958    -4.5824196
25
133_C12H11NO_11-10-20-17 (0,) energy =    -593.8444280
C           6.1163985     0.6136949     0.3835150
H           7.1148368     0.9918741     0.5866495
C           5.2942962     0.1989254     1.4409628
H           5.6473401     0.2619967     2.4661454
C           4.0353819    -0.3044467     1.1584847
H           3.3672966    -0.6562498     1.9383337
C           3.5657092    -0.3924283    -0.1612723
C           4.3883037     0.0539981    -1.2240287
C           5.6793783     0.5418794    -0.9316825
H           6.3502559     0.8445025    -1.7258038
N           3.9025127     0.0019090    -2.5417467
C           2.6890114    -0.5955046    -2.7788663
H           2.3926613    -0.6286439    -3.8186879
C           1.8671265    -1.0689728    -1.8074529
H           0.9109376    -1.5051869    -2.0730809
C           2.2246911    -0.9847703    -0.4038594
O           1.4980543    -1.3736696     0.5150190
C           4.4637323     0.1894576    -5.0802711
H           4.6973682     1.0144994    -5.7465105
H           3.5931275    -0.3807766    -5.3847996
C           4.7824478     0.3929872    -3.6266787
H           5.2513903     1.3489248    -3.4142854
C           5.5999312    -0.5817533    -4.4342152
H           5.4259267    -1.6381007    -4.2494653
H           6.6287796    -0.3267015    -4.6728104
25
133_C12H11NO_11-10-20-17 (15,) energy =    -593.8420589
C           6.0986297     0.6723405     0.4371829
H           7.0874876     1.0654224     0.6580577
C           5.2439690     0.2938707     1.4818423
H           5.5598481     0.4014752     2.5153577
C           4.0016884    -0.2341200     1.1743455
H           3.3096424    -0.5635290     1.9429747
C           3.5796488    -0.3800966    -0.1564824
C           4.4320224     0.0354100    -1.2100321
C           5.7088262     0.5446476    -0.8884327
H           6.4137946     0.8176859    -1.6631682
N           3.9836755    -0.0736512    -2.5383397
C           2.7952511    -0.7155796    -2.7852936
H           2.5389027    -0.8193498    -3.8314339
C           1.9512314    -1.1666014    -1.8226722
H           1.0185001    -1.6442947    -2.1000244
C           2.2561026    -1.0039344    -0.4143402
O           1.5038128    -1.3602328     0.4971634
C           4.4386161     0.3556307    -5.0726731
H           4.7744504     1.2140783    -5.6471070
H           3.4647661    -0.0115025    -5.3784165
C           4.8605728     0.3120248    -3.6303623
H           5.4806655     1.1509496    -3.3426485
C           5.4620090    -0.6641032    -4.6079410
H           5.1249984    -1.6949182    -4.5377874
H           6.5051070    -0.5496887    -4.8899303
25
133_C12H11NO_11-10-20-17 (30,) energy =    -593.8406795
C           6.0398978     0.7559384     0.5246622
H           7.0035065     1.1947969     0.7695831
C           5.1528041     0.3943310     1.5479161
H           5.4183546     0.5569141     2.5883273
C           3.9414453    -0.1820566     1.2088518
H           3.2216715    -0.4943855     1.9588748
C           3.5838704    -0.3986979    -0.1315444
C           4.4732442    -0.0123224    -1.1674649
C           5.7152202     0.5574803    -0.8092717
H           6.4478024     0.8334285    -1.5567352
N           4.0887997    -0.2139384    -2.5042956
C           2.9059289    -0.8589410    -2.7674885
H           2.6947760    -1.0212455    -3.8173354
C           2.0254492    -1.2721588    -1.8211131
H           1.1073577    -1.7690997    -2.1130315
C           2.2793882    -1.0521294    -0.4112208
O           1.4989273    -1.3825011     0.4864579
C           4.4119960     0.5346340    -4.9727348
H           4.8630474     1.3858402    -5.4749578
H           3.3499434     0.4259262    -5.1700546
C           4.9480542     0.1800490    -3.6108245
H           5.7609411     0.8052313    -3.2773970
C           5.2363439    -0.7234166    -4.7807830
H           4.7126743    -1.6748288    -4.8184451
H           6.2509623    -0.7603688    -5.1677905
25
133_C12H11NO_11-10-20-17 (45,) energy =    -593.8407715
C           5.9850701     0.9103171     0.5080263
H           6.8982762     1.4509129     0.7423901
C           5.1273069     0.5016076     1.5385477
H           5.3731480     0.7138889     2.5748464
C           3.9589862    -0.1636326     1.2109801
H           3.2501805    -0.4893922     1.9657253
C           3.6271711    -0.4452625    -0.1238968
C           4.5084135    -0.0533073    -1.1644753
C           5.6873133     0.6446170    -0.8205459
H           6.3709130     1.0067553    -1.5775988
N           4.1755118    -0.3676698    -2.4934360
C           2.9609144    -0.9515655    -2.7544681
H           2.7463590    -1.1169068    -3.8029748
C           2.0650585    -1.3253472    -1.8059810
H           1.1293836    -1.7896694    -2.0957495
C           2.3371681    -1.1299147    -0.3958388
O           1.5715583    -1.4818314     0.5064283
C           4.5506515     0.6879415    -4.8365792
H           5.1559630     1.4819015    -5.2655806
H           3.4798154     0.8578118    -4.9106466
C           5.0532192    -0.0099140    -3.5978784
H           6.0373918     0.2635843    -3.2518998
C           5.0377315    -0.7421028    -4.9154730
H           4.3063323    -1.5271649    -5.0802331
H           6.0001829    -0.9431822    -5.3776171
25
133_C12H11NO_11-10-20-17 (60,) energy =    -593.8422050
C           5.8954128     0.9605123     0.4455309
H           6.7921110     1.5340049     0.6650188
C           5.0234527     0.5976242     1.4814038
H           5.2439441     0.8768740     2.5075276
C           3.8712950    -0.1051620     1.1729317
H           3.1509602    -0.3922061     1.9325082
C           3.5722096    -0.4726076    -0.1484599
C           4.4725351    -0.1344266    -1.1896096
C           5.6299168     0.6081980    -0.8700926
H           6.3132850     0.9382957    -1.6419331
N           4.1881034    -0.5440654    -2.5047793
C           2.9744651    -1.1306427    -2.7656400
H           2.7920944    -1.3674396    -3.8052354
C           2.0553197    -1.4486842    -1.8186127
H           1.1281842    -1.9319497    -2.1049692
C           2.2921138    -1.1781507    -0.4139442
O           1.5060434    -1.4846416     0.4871470
C           4.6966375     0.8249342    -4.6566966
H           5.4232407     1.5667610    -4.9772423
H           3.6706015     1.1823888    -4.6333288
C           5.0857790    -0.1651949    -3.5835417
H           6.1153523    -0.1596375    -3.2515269
C           4.9067996    -0.6282990    -5.0068159
H           4.0427602    -1.2152961    -5.2983375
H           5.8134637    -0.9122865    -5.5335331
25
133_C12H11NO_11-10-20-17 (75,) energy =    -593.8446768
C           5.8622960     1.0014439     0.3839127
H           6.7553549     1.5866508     0.5867655
C           4.9744843     0.6923769     1.4242923
H           5.1792602     1.0284315     2.4365998
C           3.8295304    -0.0330683     1.1400507
H           3.1012338    -0.2830099     1.9051534
C           3.5515717    -0.4737116    -0.1633199
C           4.4645082    -0.1828921    -1.2059641
C           5.6164958     0.5776020    -0.9144455
H           6.3090557     0.8561958    -1.6986772
N           4.2058454    -0.6560527    -2.5041376
C           3.0142983    -1.2915268    -2.7529108
H           2.8697338    -1.6073632    -3.7770369
C           2.0858257    -1.5749110    -1.8035037
H           1.1788139    -2.1031672    -2.0745582
C           2.2849604    -1.2088357    -0.4139371
O           1.4823243    -1.4687231     0.4870965
C           4.8361218     0.9022422    -4.4805431
H           5.6604390     1.5581017    -4.7475812
H           3.8843902     1.4072478    -4.3410679
C           5.1105079    -0.2773003    -3.5741508
H           6.1451567    -0.4665419    -3.3073081
C           4.7898127    -0.5000236    -5.0301804
H           3.8238226    -0.8863032    -5.3350983
H           5.6089568    -0.8465150    -5.6535880
25
133_C12H11NO_11-10-20-17 (90,) energy =    -593.8473545
C           5.8324178     1.0452787     0.3257781
H           6.7235738     1.6366131     0.5190855
C           4.9344316     0.7683270     1.3670919
H           5.1282261     1.1396072     2.3692372
C           3.7972994     0.0239121     1.0995178
H           3.0674951    -0.2088947     1.8685933
C           3.5336900    -0.4630248    -0.1902911
C           4.4502948    -0.1918017    -1.2340095
C           5.5995391     0.5780635    -0.9599448
H           6.3000214     0.8189933    -1.7500369
N           4.2030804    -0.6953757    -2.5207206
C           3.0471653    -1.3997662    -2.7525887
H           2.9328052    -1.7628908    -3.7655318
C           2.1211515    -1.6780332    -1.7992689
H           1.2388504    -2.2540307    -2.0540875
C           2.2874739    -1.2373590    -0.4261860
O           1.4774902    -1.4751215     0.4743419
C           4.9753275     0.9352935    -4.3646158
H           5.8776235     1.4813136    -4.6264107
H           4.1243151     1.5613185    -4.1126789
C           5.1185246    -0.3573224    -3.5918401
H           6.1300810    -0.7074046    -3.3997943
C           4.6842648    -0.3801773    -5.0354901
H           3.6500529    -0.5893242    -5.2860416
H           5.3973816    -0.7754012    -5.7528707
25
133_C12H11NO_11-10-20-17 (105,) energy =    -593.8492717
C           5.8010871     1.0873828     0.2942790
H           6.6882638     1.6869183     0.4806268
C           4.9032204     0.8199980     1.3384692
H           5.0912731     1.2109567     2.3342172
C           3.7778340     0.0531084     1.0843071
H           3.0546102    -0.1818966     1.8589161
C           3.5221783    -0.4600973    -0.1969400
C           4.4307653    -0.1841073    -1.2462990
C           5.5748219     0.5967658    -0.9838784
H           6.2779160     0.8186348    -1.7773304
N           4.1812815    -0.6976227    -2.5268015
C           3.0716441    -1.4812295    -2.7345999
H           2.9764113    -1.8665106    -3.7424127
C           2.1615285    -1.7786253    -1.7722966
H           1.3073745    -2.4034693    -2.0071843
C           2.3037333    -1.2830483    -0.4144092
O           1.4984577    -1.5209388     0.4901524
C           5.1171061     0.9311570    -4.2744621
H           6.0782359     1.3551902    -4.5518175
H           4.3844755     1.6544606    -3.9292695
C           5.1064736    -0.4240577    -3.6049133
H           6.0684100    -0.9203884    -3.4844705
C           4.6008357    -0.2715060    -5.0170568
H           3.5318403    -0.3198140    -5.1977558
H           5.2054841    -0.7036933    -5.8087996
25
133_C12H11NO_11-10-20-17 (120,) energy =    -593.8496407
C           5.7475199     1.1344240     0.2755103
H           6.6299581     1.7428239     0.4556682
C           4.8538476     0.8674780     1.3232346
H           5.0372441     1.2714972     2.3146287
C           3.7430574     0.0764615     1.0797431
H           3.0294913    -0.1693141     1.8599318
C           3.4941179    -0.4545830    -0.1955894
C           4.3891284    -0.1644592    -1.2534963
C           5.5262501     0.6287988    -0.9977241
H           6.2322315     0.8410949    -1.7906267
N           4.1297008    -0.6810598    -2.5313520
C           3.0760112    -1.5481874    -2.7072180
H           2.9938627    -1.9496502    -3.7109816
C           2.1904216    -1.8744335    -1.7326609
H           1.3708160    -2.5512503    -1.9456014
C           2.3086405    -1.3299584    -0.3907608
O           1.5132205    -1.5759358     0.5201657
C           5.2448142     0.9018839    -4.2019412
H           6.2481203     1.1971294    -4.4958302
H           4.6398129     1.7007846    -3.7845841
C           5.0601979    -0.4781431    -3.6194118
H           5.9474437    -1.1089057    -3.5642682
C           4.5312458    -0.1615335    -4.9948967
H           3.4573514    -0.0549686    -5.1147574
H           5.0353111    -0.6173992    -5.8418965
25
133_C12H11NO_11-10-20-17 (135,) energy =    -593.8478415
C           5.7144474     1.1791969     0.2454239
H           6.5952830     1.7918264     0.4192082
C           4.8248108     0.9152307     1.2967319
H           5.0051618     1.3300368     2.2841937
C           3.7270043     0.1040786     1.0625160
H           3.0229252    -0.1522557     1.8478907
C           3.4829056    -0.4415688    -0.2077030
C           4.3626320    -0.1390004    -1.2761134
C           5.4955890     0.6617337    -1.0236354
H           6.2082454     0.8638396    -1.8119362
N           4.0872361    -0.6575036    -2.5529281
C           3.0975950    -1.6073331    -2.6875892
H           3.0265782    -2.0305607    -3.6841156
C           2.2421936    -1.9635659    -1.6981169
H           1.4651453    -2.6961902    -1.8842336
C           2.3313835    -1.3665788    -0.3763925
O           1.5455989    -1.6170657     0.5413038
C           5.3790844     0.8657586    -4.1558298
H           6.4084847     1.0291647    -4.4614757
H           4.9059745     1.7181281    -3.6792456
C           5.0078004    -0.5069952    -3.6594973
H           5.7997994    -1.2563354    -3.6765744
C           4.4962460    -0.0265310    -4.9930989
H           3.4449592     0.2375492    -5.0594969
H           4.9049942    -0.4907728    -5.8857513
25
133_C12H11NO_11-10-20-17 (150,) energy =    -593.8436542
C           5.6761145     1.2098620     0.2166392
H           6.5573889     1.8219506     0.3903239
C           4.7756809     0.9632875     1.2621702
H           4.9425818     1.3962593     2.2441465
C           3.6908087     0.1348777     1.0304283
H           2.9857983    -0.1231922     1.8143978
C           3.4647889    -0.4344054    -0.2328635
C           4.3421421    -0.1314421    -1.3048752
C           5.4726345     0.6717171    -1.0465915
H           6.2056775     0.8515319    -1.8197382
N           4.0629229    -0.6645186    -2.5784800
C           3.1431993    -1.6897192    -2.6711324
H           3.0939014    -2.1464222    -3.6546946
C           2.3103456    -2.0665805    -1.6712642
H           1.5856660    -2.8569554    -1.8302323
C           2.3488609    -1.4058419    -0.3781431
O           1.5597430    -1.6495861     0.5383142
C           5.5061249     0.8125072    -4.1293755
H           6.5394952     0.8387192    -4.4624616
H           5.1807685     1.6959145    -3.5915006
C           4.9427072    -0.5207551    -3.7223987
H           5.6193210    -1.3668876    -3.8458769
C           4.4640141     0.1357149    -4.9911377
H           3.4666847     0.5652825    -4.9813337
H           4.7580678    -0.3140922    -5.9350060
25
133_C12H11NO_11-10-20-17 (165,) energy =    -593.8377394
C           5.6211174     1.2385611     0.1899245
H           6.4984760     1.8546195     0.3694236
C           4.6890368     1.0274103     1.2148909
H           4.8223359     1.4976921     2.1847258
C           3.6229704     0.1757756     0.9817769
H           2.9017648    -0.0692719     1.7551483
C           3.4395027    -0.4406945    -0.2663274
C           4.3371492    -0.1580984    -1.3287894
C           5.4588774     0.6543889    -1.0586788
H           6.2274162     0.7937435    -1.8034534
N           4.0899771    -0.7400839    -2.5875649
C           3.2229144    -1.8124835    -2.6473740
H           3.2064567    -2.3129065    -3.6107424
C           2.3899786    -2.1858971    -1.6462217
H           1.7146693    -3.0233175    -1.7793600
C           2.3586717    -1.4536434    -0.3927865
O           1.5493934    -1.6765452     0.5114022
C           5.6344852     0.7066883    -4.1475406
H           6.6178750     0.5728171    -4.5886863
H           5.5347554     1.5891119    -3.5284847
C           4.8646478    -0.5367606    -3.8021476
H           5.3668027    -1.4556302    -4.1024229
C           4.3980275     0.3322314    -4.9403796
H           3.5146745     0.9402480    -4.7686000
H           4.4956802    -0.0556655    -5.9504340
25
133_C12H11NO_11-10-20-17 (180,) energy =    -593.8328365
C           5.5195450     1.3363966     0.1300228
H           6.3618455     2.0017533     0.3008115
C           4.5566386     1.1499983     1.1308962
H           4.6299239     1.6867802     2.0721691
C           3.5383035     0.2380015     0.9141532
H           2.7956453     0.0125017     1.6730577
C           3.4292883    -0.4632701    -0.2972622
C           4.3600929    -0.2149499    -1.3401782
C           5.4338441     0.6629452    -1.0802032
H           6.2335721     0.7750862    -1.7942484
N           4.2120930    -0.9028212    -2.5582691
C           3.3256840    -1.9587615    -2.6096435
H           3.3335515    -2.5021331    -3.5490200
C           2.4635840    -2.2963185    -1.6198426
H           1.8004789    -3.1454017    -1.7401129
C           2.3800701    -1.5106689    -0.4035767
O           1.5482766    -1.7078321     0.4863863
C           5.7738944     0.5040016    -4.2463400
H           6.5460327     0.2021736    -4.9488242
H           6.0865600     1.2741759    -3.5565590
C           4.7838729    -0.5619816    -3.8592079
H           4.9507317    -1.4855547    -4.4067805
C           4.3336864     0.5903182    -4.7183931
H           3.7239849     1.3507304    -4.2382310
H           4.0824889     0.3977696    -5.7578809
