23
003_C11H10N2_0-5-6-18 (-165,) energy =    -534.6983221
N           0.2683693    -0.7800330     1.7960872
C          -1.0465909    -0.5526824     1.7362449
H          -1.6210711    -0.9026211     2.5930053
C          -1.6816766     0.0858421     0.6731883
H          -2.7535968     0.2530804     0.6838102
C           1.0288762    -0.3748929     0.7623270
N           2.3713925    -0.6871855     0.9081756
H           2.5344533    -1.3033534     1.6945823
C          -0.8856925     0.4823534    -0.4045800
H          -1.3308445     0.9604483    -1.2734514
C           5.8644010     0.6388475    -1.0509892
H           6.7721358     0.9685029    -1.5477171
C           4.7358755     1.4586122    -1.0206118
H           4.7652720     2.4414763    -1.4839334
C           0.4835437     0.2512971    -0.3768893
H           1.1094700     0.5154509    -1.2201875
C           3.5667463     1.0473419    -0.3807596
H           2.7185070     1.7198955    -0.3245598
C           3.5033111    -0.2181027     0.2264727
C           4.6450153    -1.0386005     0.1989704
H           4.6033282    -2.0198415     0.6659250
C           5.8120361    -0.6093974    -0.4260497
H           6.6820746    -1.2607283    -0.4333514
23
003_C11H10N2_0-5-6-18 (-150,) energy =    -534.6979394
N           0.3033255    -0.7481695     1.7885385
C          -0.9969873    -0.4376801     1.7869964
H          -1.5425642    -0.7003568     2.6923323
C          -1.6486278     0.1862337     0.7257164
H          -2.7047586     0.4274517     0.7861782
C           1.0234107    -0.4562864     0.6914927
N           2.3505107    -0.8612332     0.7612875
H           2.5190241    -1.4341402     1.5796705
C          -0.8938374     0.4713609    -0.4156146
H          -1.3576201     0.9331863    -1.2834612
C           5.8691925     0.7135910    -0.9602895
H           6.7831557     1.1045766    -1.3975290
C           4.6993185     1.4732056    -0.9676668
H           4.7005860     2.4700002    -1.4013437
C           0.4553413     0.1443740    -0.4498291
H           1.0506344     0.3164693    -1.3387060
C           3.5203670     0.9828988    -0.4055669
H           2.6347887     1.6075825    -0.3845783
C           3.4922652    -0.3006089     0.1635656
C           4.6742696    -1.0624483     0.1713249
H           4.6582909    -2.0590757     0.6061444
C           5.8483842    -0.5558828    -0.3771940
H           6.7499953    -1.1625236    -0.3568570
23
003_C11H10N2_0-5-6-18 (-135,) energy =    -534.6967913
N           0.3554698    -0.6965560     1.7701138
C          -0.9231773    -0.3062141     1.8281502
H          -1.4230254    -0.4741859     2.7810013
C          -1.6029673     0.2914831     0.7697453
H          -2.6362383     0.6040759     0.8799020
C           1.0119831    -0.5279520     0.6115340
N           2.3209718    -1.0122356     0.6038952
H           2.4939098    -1.5728670     1.4313009
C          -0.9105952     0.4585644    -0.4331823
H          -1.4018305     0.8976308    -1.2976240
C           5.8575940     0.7809237    -0.8598988
H           6.7754003     1.2258364    -1.2328400
C           4.6561980     1.4874278    -0.9107292
H           4.6349056     2.4961951    -1.3153374
C           0.4094243     0.0377591    -0.5282670
H           0.9601746     0.1149089    -1.4589824
C           3.4713873     0.9271535    -0.4317159
H           2.5564966     1.5083556    -0.4509993
C           3.4720099    -0.3716670     0.0998516
C           4.6845123    -1.0818797     0.1487008
H           4.6903725    -2.0920081     0.5516321
C           5.8622471    -0.5072475    -0.3187152
H           6.7879045    -1.0745725    -0.2667134
23
003_C11H10N2_0-5-6-18 (-120,) energy =    -534.6948107
N           0.4433038    -0.6609199     1.7420990
C          -0.8060328    -0.1984898     1.8782513
H          -1.2339259    -0.2841517     2.8758825
C          -1.5374741     0.3776232     0.8423700
H          -2.5406729     0.7536980     1.0155228
C           1.0039561    -0.5995123     0.5262289
N           2.2934845    -1.1469525     0.4240416
H           2.4679648    -1.7375780     1.2315445
C          -0.9401614     0.4420197    -0.4196129
H          -1.4770176     0.8640074    -1.2651044
C           5.8429881     0.8396158    -0.7419690
H           6.7631203     1.3326581    -1.0414404
C           4.6170795     1.4934072    -0.8610506
H           4.5774752     2.5085844    -1.2479368
C           0.3429945    -0.0623294    -0.5921517
H           0.8247218    -0.0682100    -1.5639841
C           3.4285973     0.8706572    -0.4768615
H           2.4906132     1.4087996    -0.5553146
C           3.4523041    -0.4365115     0.0310337
C           4.6890036    -1.0948501     0.1470564
H           4.7140209    -2.1123330     0.5307581
C           5.8683616    -0.4599189    -0.2291670
H           6.8127809    -0.9879221    -0.1253536
23
003_C11H10N2_0-5-6-18 (-105,) energy =    -534.6922086
N           0.5456486    -0.5874892     1.6793949
C          -0.6702455    -0.0640473     1.8838698
H          -1.0128750    -0.0538767     2.9173379
C          -1.4678431     0.4612648     0.8691044
H          -2.4384214     0.8906772     1.0965963
C           0.9950321    -0.6460841     0.4196828
N           2.2655555    -1.2392656     0.2303713
H           2.4391972    -1.8842586     0.9963710
C          -0.9825170     0.4073345    -0.4395946
H          -1.5744810     0.7897398    -1.2668396
C           5.8240381     0.8907079    -0.6256283
H           6.7451237     1.4209560    -0.8489459
C           4.5871686     1.5062218    -0.8156055
H           4.5391886     2.5277706    -1.1844569
C           0.2625361    -0.1655909    -0.6762354
H           0.6648738    -0.2635678    -1.6789992
C           3.3976582     0.8350520    -0.5290136
H           2.4479337     1.3399594    -0.6684220
C           3.4316215    -0.4808530    -0.0456130
C           4.6787990    -1.1006381     0.1417838
H           4.7141500    -2.1244003     0.5081485
C           5.8586515    -0.4192418    -0.1411605
H           6.8113161    -0.9182948     0.0169340
23
003_C11H10N2_0-5-6-18 (-90,) energy =    -534.6894816
N           0.6761040    -0.4826231     1.6270873
C          -0.5091571     0.0812395     1.8934947
H          -0.7507729     0.2021457     2.9482501
C          -1.3979575     0.5148050     0.9103111
H          -2.3393025     0.9802942     1.1855167
C           0.9988009    -0.6735593     0.3427935
N           2.2521799    -1.2945785     0.0699608
H           2.4198152    -2.0115504     0.7711889
C          -1.0430131     0.3258565    -0.4261610
H          -1.7079987     0.6380719    -1.2269060
C           5.8108322     0.9293707    -0.5016237
H           6.7304494     1.4859461    -0.6566177
C           4.5718592     1.5318749    -0.7199295
H           4.5207379     2.5681542    -1.0447307
C           0.1718525    -0.2881136    -0.7194751
H           0.4839767    -0.4854471    -1.7395251
C           3.3848449     0.8265585    -0.5203440
H           2.4312660     1.3169242    -0.6863558
C           3.4224766    -0.5095998    -0.0957533
C           4.6710517    -1.1152621     0.1213764
H           4.7107719    -2.1533939     0.4448836
C           5.8491307    -0.4010810    -0.0776239
H           6.8033362    -0.8900942     0.1015291
23
003_C11H10N2_0-5-6-18 (-75,) energy =    -534.6893340
N           0.7089107     0.3866716     1.4532799
C          -0.5397162     0.8676199     1.4470452
H          -0.7606828     1.6116019     2.2108577
C          -1.5317835     0.4497736     0.5615484
H          -2.5357237     0.8576366     0.6231459
C           1.0385828    -0.5096103     0.5149692
N           2.3366889    -1.0720077     0.5843476
H           2.3450345    -1.9958886     0.1649151
C          -1.1880900    -0.5036299    -0.3978968
H          -1.9211265    -0.8581899    -1.1176896
C           5.8673528     0.9796641    -0.5239846
H           6.7800490     1.4969985    -0.8051516
C           4.8197358     1.6706264     0.0885173
H           4.9166911     2.7344569     0.2905211
C           0.1162347    -0.9849239    -0.4328428
H           0.4256827    -1.7056227    -1.1848682
C           3.6462699     1.0168990     0.4607991
H           2.8481401     1.5507085     0.9633112
C           3.4996703    -0.3546405     0.2033545
C           4.5539980    -1.0509889    -0.4072337
H           4.4514711    -2.1168208    -0.6047455
C           5.7266637    -0.3880562    -0.7635112
H           6.5301261    -0.9463302    -1.2372787
23
003_C11H10N2_0-5-6-18 (-60,) energy =    -534.6926463
N           0.7673356     0.5425220     1.2823553
C          -0.4837237     1.0146378     1.3370965
H          -0.6400945     1.8499812     2.0179795
C          -1.5502323     0.4866346     0.6137236
H          -2.5489099     0.8979577     0.7189678
C           1.0199527    -0.4670210     0.4387843
N           2.3131060    -1.0187770     0.4410243
H           2.3189629    -1.9270457    -0.0090509
C          -1.2850276    -0.5831477    -0.2446416
H          -2.0782983    -1.0282788    -0.8394210
C           5.9375089     0.9822361    -0.4221630
H           6.8751385     1.4837872    -0.6435888
C           4.8989847     1.6676215     0.2107811
H           5.0277943     2.7107635     0.4887258
C           0.0138536    -1.0639765    -0.3454285
H           0.2565557    -1.8764691    -1.0252772
C           3.6926457     1.0356266     0.5101630
H           2.8994785     1.5614103     1.0264009
C           3.5044669    -0.3083893     0.1528223
C           4.5507616    -1.0000453    -0.4786950
H           4.4156058    -2.0449764    -0.7535093
C           5.7553266    -0.3598425    -0.7597532
H           6.5505903    -0.9143268    -1.2513871
23
003_C11H10N2_0-5-6-18 (-45,) energy =    -534.6952927
N           0.7962456     0.6314945     1.1108399
C          -0.4591068     1.0805644     1.2375352
H          -0.5766628     1.9708467     1.8535598
C          -1.5695756     0.4724346     0.6613318
H          -2.5655261     0.8741878     0.8161114
C           1.0018690    -0.4479273     0.3445538
N           2.2929453    -0.9733448     0.2579854
H           2.3055752    -1.8710111    -0.2101651
C          -1.3503845    -0.6670704    -0.1197749
H          -2.1801934    -1.1787427    -0.6002214
C           5.9999394     0.9709856    -0.3250974
H           6.9604940     1.4543392    -0.4783294
C           4.9503854     1.6551053     0.2896174
H           5.0934549     2.6803888     0.6217265
C          -0.0561340    -1.1333010    -0.2910658
H           0.1461385    -2.0031056    -0.9109383
C           3.7129725     1.0473281     0.5021275
H           2.9090575     1.5727861     0.9994594
C           3.5066373    -0.2736882     0.0739789
C           4.5652197    -0.9649757    -0.5402486
H           4.4169255    -1.9921723    -0.8700168
C           5.7978403    -0.3483248    -0.7346309
H           6.6003801    -0.9028189    -1.2141624
23
003_C11H10N2_0-5-6-18 (-30,) energy =    -534.6971135
N           0.7925656     0.7070635     0.9493366
C          -0.4643071     1.1291731     1.1435929
H          -0.5616684     2.0600373     1.7003485
C          -1.5951767     0.4542604     0.6993036
H          -2.5885631     0.8422060     0.8986314
C           0.9737304    -0.4249317     0.2566690
N           2.2616360    -0.9170872     0.0807131
H           2.2775440    -1.8110063    -0.3922883
C          -1.3990281    -0.7365702    -0.0106170
H          -2.2462073    -1.3042469    -0.3864729
C           6.0362477     0.9529749    -0.2228890
H           7.0154475     1.4154237    -0.3069319
C           4.9727684     1.6419206     0.3607666
H           5.1229749     2.6505990     0.7376174
C          -0.1096664    -1.1846124    -0.2426593
H           0.0712871    -2.0980153    -0.8038825
C           3.7093368     1.0629511     0.4836590
H           2.8928334     1.5953707     0.9503192
C           3.4928302    -0.2371518    -0.0018412
C           4.5667001    -0.9331635    -0.5865233
H           4.4108109    -1.9436902    -0.9613658
C           5.8224915    -0.3442305    -0.6935689
H           6.6348370    -0.9028182    -1.1513164
23
003_C11H10N2_0-5-6-18 (-15,) energy =    -534.6981340
N           0.7854612     0.7704156     0.8033281
C          -0.4684211     1.1609337     1.0720874
H          -0.5570450     2.1186328     1.5829298
C          -1.6042885     0.4289761     0.7495532
H          -2.5936162     0.7972794     0.9995853
C           0.9558912    -0.3966066     0.1686400
N           2.2364099    -0.8499154    -0.1047517
H           2.2573653    -1.7492127    -0.5655065
C          -1.4182034    -0.7943790     0.0925862
H          -2.2700570    -1.4087194    -0.1870017
C           6.0677817     0.9206866    -0.1370617
H           7.0623310     1.3569358    -0.1535408
C           4.9921571     1.6245325     0.4045295
H           5.1476910     2.6189586     0.8156051
C          -0.1351685    -1.2173716    -0.2060765
H           0.0365109    -2.1590680    -0.7217174
C           3.7072988     1.0815178     0.4385714
H           2.8800285     1.6288846     0.8662069
C           3.4832324    -0.2010309    -0.0898624
C           4.5699370    -0.9114744    -0.6340715
H           4.4081268    -1.9075247    -1.0436085
C           5.8449427    -0.3566015    -0.6560216
H           6.6659049    -0.9266488    -1.0832414
23
003_C11H10N2_0-5-6-18 (0,) energy =    -534.6984570
N           0.7709703     0.8298558     0.6723302
C          -0.4757411     1.1856438     1.0137130
H          -0.5668199     2.1630760     1.4852576
C          -1.6016149     0.4000209     0.8027675
H          -2.5854731     0.7451283     1.1024621
C           0.9444117    -0.3628102     0.0880592
N           2.2140375    -0.7711713    -0.2819091
H           2.2412050    -1.6855634    -0.7108566
C          -1.4127332    -0.8464695     0.1910455
H          -2.2569230    -1.5039233     0.0004279
C           6.0873925     0.8873464    -0.0472423
H           7.0929908     1.2947680     0.0027717
C           5.0021132     1.6084210     0.4505304
H           5.1615687     2.5883338     0.8936844
C          -0.1371673    -1.2393412    -0.1722458
H           0.0367017    -2.2011870    -0.6484985
C           3.7023804     1.1036498     0.3963247
H           2.8663922     1.6672475     0.7836402
C           3.4742258    -0.1610125    -0.1723888
C           4.5704180    -0.8881058    -0.6747296
H           4.4050794    -1.8690448    -1.1179720
C           5.8590652    -0.3694182    -0.6119657
H           6.6868968    -0.9523826    -1.0072874
23
003_C11H10N2_0-5-6-18 (15,) energy =    -534.6981341
N           0.7490194     0.8941754     0.5461128
C          -0.4828208     1.2168846     0.9648137
H          -0.5789365     2.2095836     1.4022269
C          -1.5896890     0.3834596     0.8630491
H          -2.5635639     0.7057266     1.2160583
C           0.9297074    -0.3181200     0.0063175
N           2.1815283    -0.6820823    -0.4632509
H           2.2063052    -1.6063826    -0.8712964
C          -1.3950313    -0.8803685     0.2905931
H          -2.2232573    -1.5765389     0.1873900
C           6.0912853     0.8298439     0.0313253
H           7.1054225     1.2011760     0.1468738
C           5.0041698     1.5805884     0.4789714
H           5.1704062     2.5474908     0.9474957
C          -0.1316493    -1.2434343    -0.1410824
H           0.0481646    -2.2208781    -0.5819723
C           3.6934561     1.1236259     0.3373952
H           2.8556736     1.7133579     0.6797401
C           3.4562338    -0.1245701    -0.2627493
C           4.5537816    -0.8804117    -0.7163552
H           4.3810774    -1.8478505    -1.1856708
C           5.8535531    -0.4075274    -0.5709634
H           6.6826904    -1.0122461    -0.9291257
23
003_C11H10N2_0-5-6-18 (30,) energy =    -534.6971136
N           0.7158424     0.9656207     0.4061918
C          -0.4988212     1.2522333     0.8941812
H          -0.6172238     2.2622276     1.2838596
C          -1.5669910     0.3631264     0.9097168
H          -2.5314536     0.6591213     1.3087879
C           0.9241196    -0.2679067    -0.0723982
N           2.1570525    -0.5822393    -0.6317993
H           2.1816633    -1.5129769    -1.0269897
C          -1.3466680    -0.9196625     0.3935372
H          -2.1440657    -1.6581083     0.3843373
C           6.0836556     0.7820359     0.1148691
H           7.1010512     1.1172723     0.2945447
C           4.9975179     1.5557985     0.5246256
H           5.1680681     2.5046998     1.0271176
C          -0.0948935    -1.2482837    -0.0985007
H           0.1073595    -2.2417016    -0.4912370
C           3.6834982     1.1455359     0.2974152
H           2.8456782     1.7558534     0.6031798
C           3.4416764    -0.0797710    -0.3452239
C           4.5373103    -0.8577631    -0.7621252
H           4.3607465    -1.8069486    -1.2659535
C           5.8414226    -0.4298281    -0.5352450
H           6.6702002    -1.0506869    -0.8655775
23
003_C11H10N2_0-5-6-18 (45,) energy =    -534.6952927
N           0.6748090     1.0402481     0.2498081
C          -0.5201524     1.2928560     0.7992433
H          -0.6758156     2.3196748     1.1268411
C          -1.5315806     0.3484567     0.9410116
H          -2.4868985     0.6192806     1.3783923
C           0.9290181    -0.2128325    -0.1499306
N           2.1411936    -0.4801500    -0.7899370
H           2.1611466    -1.4102960    -1.1893859
C          -1.2674436    -0.9529940     0.5015781
H          -2.0182259    -1.7333318     0.5944192
C           6.0734481     0.7121052     0.1990619
H           7.0906254     1.0062928     0.4410953
C           4.9932979     1.5080119     0.5828147
H           5.1686745     2.4329193     1.1266535
C          -0.0266374    -1.2464263    -0.0425661
H           0.2141614    -2.2541498    -0.3715420
C           3.6811575     1.1500696     0.2731222
H           2.8479910     1.7807611     0.5520239
C           3.4339561    -0.0441125    -0.4224278
C           4.5219557    -0.8432988    -0.8139737
H           4.3407823    -1.7682022    -1.3595020
C           5.8263366    -0.4663887    -0.5074998
H           6.6509905    -1.1023171    -0.8189890
23
003_C11H10N2_0-5-6-18 (60,) energy =    -534.6926463
N           0.5984510     1.1105547     0.0843038
C          -0.5736111     1.3237022     0.6941199
H          -0.7875060     2.3605098     0.9493308
C          -1.5005433     0.3233997     0.9764158
H          -2.4462684     0.5624701     1.4518802
C           0.9231931    -0.1515375    -0.2259716
N           2.1144781    -0.3680212    -0.9405800
H           2.1226210    -1.2919257    -1.3575797
C          -1.1668631    -0.9872546     0.6265453
H          -1.8491928    -1.8080493     0.8312577
C           6.0361047     0.6389800     0.2809587
H           7.0484418     0.8906058     0.5835956
C           4.9626834     1.4507432     0.6520460
H           5.1383570     2.3444564     1.2456861
C           0.0609336    -1.2359464     0.0272878
H           0.3606451    -2.2482681    -0.2308175
C           3.6584131     1.1465449     0.2639335
H           2.8314824     1.7930098     0.5291371
C           3.4102915    -0.0066694    -0.4963509
C           4.4902355    -0.8205565    -0.8748340
H           4.3075363    -1.7137100    -1.4702938
C           5.7895524    -0.4973483    -0.4912515
H           6.6098914    -1.1432418    -0.7936835
23
003_C11H10N2_0-5-6-18 (75,) energy =    -534.6893340
N           0.4863496     1.1344139    -0.1249762
C          -0.6686490     1.3071369     0.5281428
H          -0.9737211     2.3416408     0.6780683
C          -1.4749573     0.2620589     0.9760003
H          -2.4163309     0.4651391     1.4766163
C           0.9194114    -0.1189946    -0.3089770
N           2.0991957    -0.2907590    -1.0736923
H           2.1011547    -1.2011346    -1.5217564
C          -1.0297814    -1.0425729     0.7583012
H          -1.6157840    -1.8939469     1.0943372
C           5.9908853     0.5525788     0.3569981
H           6.9942827     0.7662909     0.7136840
C           4.9138543     1.3513807     0.7468807
H           5.0781223     2.1972622     1.4097849
C           0.1883884    -1.2409800     0.1173449
H           0.5790014    -2.2423155    -0.0422040
C           3.6225856     1.0921249     0.2903868
H           2.7947639     1.7327102     0.5711787
C           3.3892158     0.0015820    -0.5611679
C           4.4717254    -0.7985148    -0.9578336
H           4.3008317    -1.6428493    -1.6237276
C           5.7596140    -0.5212749    -0.5039183
H           6.5834511    -1.1551369    -0.8220202
23
003_C11H10N2_0-5-6-18 (90,) energy =    -534.6894820
N           0.3202529     0.7033464    -0.8836235
C          -0.8256641     1.1436926    -0.3482647
H          -1.2840824     1.9971099    -0.8452971
C          -1.4169768     0.5823196     0.7830265
H          -2.3395967     0.9918712     1.1825056
C           0.9016086    -0.3608045    -0.3183058
N           2.1088863    -0.8356259    -0.9087182
H           2.0345224    -0.7447913    -1.9187233
C          -0.7925093    -0.5169168     1.3742500
H          -1.2215347    -0.9943710     2.2510910
C           5.9251140     0.5314318     0.3181771
H           6.9110880     0.8673808     0.6255939
C           4.8409989     0.6193905     1.1915203
H           4.9782989     1.0302362     2.1886795
C           0.3827778    -1.0067398     0.8105671
H           0.8935652    -1.8755221     1.2120370
C           3.5700462     0.1935750     0.8045439
H           2.7381537     0.2797745     1.4958116
C           3.3648008    -0.3346502    -0.4783266
C           4.4579376    -0.4245040    -1.3557377
H           4.3101529    -0.8385483    -2.3510572
C           5.7210207     0.0064062    -0.9600897
H           6.5506827    -0.0689212    -1.6584538
23
003_C11H10N2_0-5-6-18 (105,) energy =    -534.6922086
N           0.1705032     0.6633440    -0.9641367
C          -0.9956101     1.0266101    -0.4142187
H          -1.5594642     1.7828087    -0.9580807
C          -1.4813127     0.5080618     0.7845457
H          -2.4254339     0.8543767     1.1930417
C           0.8835370    -0.2846778    -0.3435936
N           2.0915144    -0.6753908    -0.9681529
H           2.0163364    -0.4883111    -1.9642850
C          -0.7219098    -0.4704424     1.4303058
H          -1.0664556    -0.9164248     2.3594871
C           5.9618057     0.4133735     0.3615198
H           6.9617211     0.6803247     0.6906710
C           4.8743686     0.5336352     1.2262793
H           5.0225361     0.9031699     2.2379150
C           0.4743126    -0.8867935     0.8557688
H           1.0795428    -1.6696485     1.3005701
C           3.5849931     0.1962099     0.8125158
H           2.7521024     0.3141912     1.4971484
C           3.3653335    -0.2764431    -0.4893255
C           4.4628519    -0.4003456    -1.3581257
H           4.3028674    -0.7745122    -2.3670702
C           5.7431483    -0.0545852    -0.9365875
H           6.5753280    -0.1542855    -1.6287953
23
003_C11H10N2_0-5-6-18 (120,) energy =    -534.6948107
N           0.0499924     0.6531595    -1.0353625
C          -1.1398057     0.9218459    -0.4827121
H          -1.7886219     1.5802955    -1.0581939
C          -1.5512385     0.4269355     0.7524982
H          -2.5205122     0.6942294     1.1610145
C           0.8739430    -0.1727789    -0.3755411
N           2.0857119    -0.4659436    -1.0226151
H           2.0079561    -0.2124407    -2.0029390
C          -0.6810513    -0.4282822     1.4343394
H          -0.9639285    -0.8568209     2.3921903
C           6.0015478     0.2945789     0.3890328
H           7.0136182     0.4797913     0.7366331
C           4.9128899     0.4946236     1.2371359
H           5.0724596     0.8474603     2.2529503
C           0.5451287    -0.7479545     0.8643240
H           1.2302532    -1.4398179     1.3423232
C           3.6077763     0.2624447     0.8004703
H           2.7760824     0.4494447     1.4704568
C           3.3736684    -0.1873499    -0.5072324
C           4.4729697    -0.3915050    -1.3593799
H           4.2997541    -0.7497781    -2.3716843
C           5.7687802    -0.1464079    -0.9162462
H           6.6020995    -0.3069433    -1.5954368
23
003_C11H10N2_0-5-6-18 (135,) energy =    -534.6967913
N          -0.0474313     0.6489743    -1.0778160
C          -1.2568289     0.8119918    -0.5288546
H          -1.9711795     1.3763215    -1.1265305
C          -1.6149441     0.3221835     0.7247299
H          -2.6066830     0.5002042     1.1275447
C           0.8649672    -0.0550817    -0.3897395
N           2.0822673    -0.2373800    -1.0476516
H           2.0046295     0.0495899    -2.0174606
C          -0.6579193    -0.4126385     1.4307915
H          -0.8931833    -0.8377065     2.4030770
C           6.0287067     0.1666695     0.4110550
H           7.0491282     0.2636215     0.7698425
C           4.9525053     0.4594959     1.2483724
H           5.1313275     0.7989406     2.2655159
C           0.5965170    -0.6191483     0.8720194
H           1.3459601    -1.2196269     1.3753268
C           3.6372566     0.3415745     0.7973814
H           2.8178598     0.6070581     1.4556553
C           3.3790044    -0.0901962    -0.5127079
C           4.4660368    -0.3858957    -1.3541035
H           4.2726696    -0.7292203    -2.3677310
C           5.7734063    -0.2505285    -0.8977752
H           6.5973086    -0.4811838    -1.5681572
23
003_C11H10N2_0-5-6-18 (150,) energy =    -534.6979394
N          -0.1055060     0.6176980    -1.0981618
C          -1.3301243     0.6789850    -0.5654572
H          -2.0913000     1.1413450    -1.1924508
C          -1.6533787     0.2039257     0.7034175
H          -2.6631564     0.2935815     1.0901532
C           0.8710621     0.0466869    -0.3718767
N           2.0959105    -0.0204777    -1.0240138
H           2.0118617     0.2518949    -1.9961859
C          -0.6339525    -0.4014316     1.4436576
H          -0.8366839    -0.8136617     2.4287975
C           6.0624952     0.0506081     0.4203495
H           7.0885891     0.0650347     0.7757365
C           5.0144029     0.4091729     1.2680567
H           5.2221461     0.7188775     2.2891356
C           0.6442455    -0.4953409     0.9090881
H           1.4399571    -0.9980537     1.4459456
C           3.6927724     0.3981132     0.8214535
H           2.8987933     0.7215887     1.4846880
C           3.3972349     0.0046890    -0.4938291
C           4.4567406    -0.3537377    -1.3462205
H           4.2345197    -0.6640128    -2.3645213
C           5.7723933    -0.3224366    -0.8944414
H           6.5745284    -0.6012460    -1.5728023
23
003_C11H10N2_0-5-6-18 (165,) energy =    -534.6983221
N          -0.1445156     0.5993271    -1.1190050
C          -1.3792094     0.5614458    -0.6105903
H          -2.1668750     0.9279000    -1.2677183
C          -1.6844682     0.0961493     0.6666944
H          -2.7063376     0.0988211     1.0312086
C           0.8692291     0.1532915    -0.3544525
N           2.1019298     0.2049702    -0.9860575
H           2.0151033     0.4247370    -1.9703602
C          -0.6273841    -0.3851399     1.4434365
H          -0.8100735    -0.7857589     2.4373191
C           6.0701936    -0.0667635     0.4199253
H           7.0970047    -0.1375334     0.7663991
C           5.0601646     0.3634136     1.2809101
H           5.3003098     0.6446105     2.3030706
C           0.6667074    -0.3683700     0.9394453
H           1.4918046    -0.7741937     1.5114878
C           3.7390990     0.4631640     0.8447311
H           2.9785372     0.8480301     1.5143729
C           3.4027230     0.1065677    -0.4720055
C           4.4247813    -0.3205060    -1.3383035
H           4.1721110    -0.5991931    -2.3586516
C           5.7424091    -0.3977041    -0.8970578
H           6.5153505    -0.7294929    -1.5853385
23
003_C11H10N2_0-5-6-18 (180,) energy =    -534.6981513
N           0.2640554    -0.8105038     1.8006310
C          -1.0589731    -0.6710523     1.6858213
H          -1.6469364    -1.1060400     2.4931025
C          -1.6874284    -0.0255870     0.6228421
H          -2.7680737     0.0627269     0.5848377
C           1.0430648    -0.2940624     0.8317308
N           2.3965871    -0.5043348     1.0505564
H           2.5536955    -1.1693233     1.7976061
C          -0.8707862     0.4827097    -0.3901052
H          -1.3067433     0.9736117    -1.2565303
C           5.8466423     0.5605764    -1.1307148
H           6.7429426     0.8266226    -1.6832531
C           4.7681100     1.4435274    -1.0652565
H           4.8262159     2.4112142    -1.5568593
C           0.5094546     0.3527308    -0.3010287
H           1.1521217     0.7115233    -1.0947474
C           3.6157833     1.1142744    -0.3520781
H           2.8117269     1.8361436    -0.2635751
C           3.5154004    -0.1308126     0.2913912
C           4.6080124    -1.0130450     0.2302737
H           4.5391407    -1.9777035     0.7276740
C           5.7616632    -0.6655268    -0.4671583
H           6.5940482    -1.3635338    -0.5007222
