23
003_C11H10N2_5-6-18-16 (-165,) energy =    -534.6982295
N           0.7751536     0.4701688    -0.7664270
C          -0.4593570     0.5360426    -1.2848883
H          -0.5415451     1.0882866    -2.2199451
C          -1.5842888    -0.0397351    -0.7080702
H          -2.5584086     0.0504899    -1.1769651
C           0.9372835    -0.1990006     0.3820990
N           2.1952780    -0.2868946     0.9545596
H           2.2228726    -0.8557152     1.7892879
C          -1.4076866    -0.7346526     0.4957613
H          -2.2516160    -1.2058261     0.9927954
C           6.0905240     0.8004124    -0.2525659
H           7.1012411     1.0717294    -0.5433753
C           5.8711015    -0.0716170     0.8158468
H           6.7106127    -0.4890396     1.3657835
C          -0.1440663    -0.8206053     1.0523348
H           0.0207436    -1.3554256     1.9845176
C           4.5757473    -0.4205601     1.1829350
H           4.4172587    -1.1069672     2.0133605
C           3.4650306     0.1024737     0.4944296
C           3.6848126     0.9812062    -0.5797541
H           2.8377156     1.3782701    -1.1195787
C           4.9908347     1.3152319    -0.9394084
H           5.1435981     1.9954148    -1.7736956
23
003_C11H10N2_5-6-18-16 (-150,) energy =    -534.6975276
N           1.0753177    -0.4819916     1.2554944
C          -0.0291316    -0.7102902     1.9796299
H           0.1401012    -0.8945552     3.0396137
C          -1.3180852    -0.7244761     1.4606835
H          -2.1733628    -0.9184423     2.0993228
C           0.9273339    -0.2446051    -0.0533572
N           2.0506523    -0.0159298    -0.8356398
H           1.8323838     0.2696054    -1.7805589
C          -1.4635925    -0.4822913     0.0886144
H          -2.4477314    -0.4809536    -0.3726650
C           6.0735702     0.8494751     0.1044689
H           7.1130332     1.0738949     0.3258817
C           5.4771505     1.3365095    -1.0600255
H           6.0472938     1.9480142    -1.7545682
C          -0.3401279    -0.2399656    -0.6824663
H          -0.4248527    -0.0468286    -1.7490753
C           4.1426050     1.0540336    -1.3365640
H           3.6819951     1.4490255    -2.2406323
C           3.3795545     0.2622057    -0.4605172
C           3.9792469    -0.2307163     0.7099640
H           3.3945500    -0.8262282     1.3961246
C           5.3136914     0.0720879     0.9796673
H           5.7639234    -0.3147349     1.8904313
23
003_C11H10N2_5-6-18-16 (-135,) energy =    -534.6963739
N           1.0962282    -0.4186901     1.2334251
C          -0.0076382    -0.5541964     1.9806477
H           0.1639923    -0.6430844     3.0525503
C          -1.3004237    -0.5876033     1.4704729
H          -2.1557046    -0.7026180     2.1280036
C           0.9440081    -0.2998630    -0.0903644
N           2.0755726    -0.1771305    -0.8901429
H           1.8614900     0.0791917    -1.8448653
C          -1.4494328    -0.4700929     0.0830087
H          -2.4363343    -0.4889414    -0.3720494
C           6.0269179     0.8916073     0.1490027
H           7.0477513     1.1645252     0.4010047
C           5.3978142     1.4569599    -0.9610186
H           5.9233620     2.1794285    -1.5800254
C          -0.3252435    -0.3249618    -0.7124407
H          -0.4117091    -0.2294797    -1.7920052
C           4.0845074     1.1129725    -1.2741865
H           3.5931166     1.5722117    -2.1299989
C           3.3861529     0.1764430    -0.4958956
C           4.0192290    -0.3946224     0.6184134
H           3.4797000    -1.1043502     1.2302958
C           5.3270462    -0.0279381     0.9327511
H           5.8056033    -0.4763089     1.7996493
23
003_C11H10N2_5-6-18-16 (-120,) energy =    -534.6948088
N           1.1347279    -0.3486890     1.2132376
C           0.0366647    -0.3937473     1.9790039
H           0.2168695    -0.3812447     3.0531818
C          -1.2618001    -0.4543220     1.4843167
H          -2.1126705    -0.4900407     2.1565808
C           0.9704643    -0.3567441    -0.1138497
N           2.1062323    -0.3408724    -0.9234138
H           1.8969509    -0.1183191    -1.8884075
C          -1.4222146    -0.4688300     0.0936584
H          -2.4137490    -0.5148487    -0.3493527
C           5.9760878     0.9280066     0.1994268
H           6.9757220     1.2501602     0.4773946
C           5.2952010     1.5642505    -0.8389761
H           5.7578815     2.3903233    -1.3726479
C          -0.3029690    -0.4210044    -0.7215864
H          -0.3971417    -0.4314256    -1.8046500
C           4.0071014     1.1571383    -1.1856423
H           3.4687563     1.6696898    -1.9803181
C           3.3985052     0.0858025    -0.5183005
C           4.0821609    -0.5531386     0.5245169
H           3.6043212    -1.3709405     1.0492134
C           5.3599252    -0.1250875     0.8798710
H           5.8815696    -0.6265763     1.6908625
23
003_C11H10N2_5-6-18-16 (-105,) energy =    -534.6929628
N           1.1550580    -0.2577480     1.1890758
C           0.0582294    -0.2150083     1.9563094
H           0.2401765    -0.0963098     3.0237687
C          -1.2421048    -0.3108365     1.4710859
H          -2.0921537    -0.2687640     2.1440965
C           0.9873386    -0.3989620    -0.1302244
N           2.1285613    -0.4851423    -0.9302740
H           1.9314182    -0.3251285    -1.9107254
C          -1.4053853    -0.4622414     0.0891904
H          -2.3983414    -0.5410159    -0.3461100
C           5.9312082     0.9476330     0.2363988
H           6.9127768     1.3096304     0.5297950
C           5.1747152     1.6524459    -0.7004718
H           5.5605277     2.5701505    -1.1365747
C          -0.2870224    -0.5092090    -0.7279826
H          -0.3827757    -0.6283209    -1.8043882
C           3.9093435     1.1924028    -1.0678050
H           3.3080273     1.7531247    -1.7799645
C           3.4070803     0.0040015    -0.5257845
C           4.1641366    -0.6998658     0.4167743
H           3.7600408    -1.6114748     0.8425029
C           5.4175506    -0.2242106     0.7976845
H           5.9995921    -0.7765593     1.5306428
23
003_C11H10N2_5-6-18-16 (-90,) energy =    -534.6915186
N           0.9699781     0.4985068     0.8768044
C          -0.1349740     0.5566421     1.6312426
H          -0.0550305     1.1697911     2.5281630
C          -1.3233698    -0.1031147     1.3342105
H          -2.1853754    -0.0189163     1.9878288
C           0.9248587    -0.2426018    -0.2364507
N           2.0608482    -0.2639033    -1.0453765
H           2.0744164    -1.0424613    -1.6931397
C          -1.3583668    -0.8751381     0.1670651
H          -2.2598952    -1.4137187    -0.1139399
C           5.9427021     0.8005923     0.2565148
H           6.9462498     1.0743512     0.5707408
C           5.0634840     1.7787447    -0.2141148
H           5.3824108     2.8161229    -0.2702683
C          -0.2299271    -0.9512903    -0.6339387
H          -0.2286602    -1.5387885    -1.5487011
C           3.7796567     1.4280650    -0.6298470
H           3.0915161     2.1751540    -1.0117760
C           3.3572557     0.0979915    -0.5524142
C           4.2376368    -0.8811592    -0.0810765
H           3.9066285    -1.9152698    -0.0227327
C           5.5284934    -0.5306836     0.3176676
H           6.2069627    -1.2980631     0.6809455
23
003_C11H10N2_5-6-18-16 (-75,) energy =    -534.6933088
N           0.9184285     0.6112305     0.8092280
C          -0.2119193     0.7404390     1.5156605
H          -0.1706956     1.4577256     2.3344553
C          -1.3809909     0.0305033     1.2608217
H          -2.2662285     0.1783582     1.8705523
C           0.9224009    -0.2596772    -0.2059653
N           2.0856614    -0.3668078    -0.9711293
H           2.1104248    -1.2123126    -1.5280818
C          -1.3663406    -0.8750375     0.1936562
H          -2.2508407    -1.4576805    -0.0509138
C           5.9669079     0.8023108     0.2255208
H           6.9715919     1.1026155     0.5100587
C           4.9927615     1.7680050    -0.0419460
H           5.2403493     2.8238496     0.0291150
C          -0.2095021    -1.0279705    -0.5542318
H          -0.1692587    -1.7213115    -1.3906457
C           3.7069478     1.3894587    -0.4221858
H           2.9499284     2.1326194    -0.6459599
C           3.3730611     0.0323823    -0.5041053
C           4.3490601    -0.9346449    -0.2386656
H           4.0917004    -1.9894659    -0.3066517
C           5.6421726    -0.5500774     0.1193004
H           6.3916617    -1.3106501     0.3217469
23
003_C11H10N2_5-6-18-16 (-60,) energy =    -534.6951867
N           0.8745920     0.6741803     0.7645961
C          -0.2856330     0.8608794     1.4074225
H          -0.2807242     1.6497282     2.1585224
C          -1.4416802     0.1258887     1.1671583
H          -2.3531592     0.3251960     1.7209231
C           0.9251068    -0.2859025    -0.1652606
N           2.1175866    -0.4705942    -0.8637173
H           2.1448210    -1.3450103    -1.3726120
C          -1.3796904    -0.8723601     0.1875934
H          -2.2522621    -1.4785336    -0.0418903
C           6.0033896     0.8078959     0.1845019
H           7.0095872     1.1343655     0.4319027
C           4.9616565     1.7353153     0.1013353
H           5.1577135     2.7896248     0.2785489
C          -0.1911333    -1.0876671    -0.4910846
H          -0.1137813    -1.8554690    -1.2568879
C           3.6697540     1.3303697    -0.2276516
H           2.8638118     2.0495558    -0.3006332
C           3.3991858    -0.0280569    -0.4459249
C           4.4451524    -0.9574204    -0.3664998
H           4.2404116    -2.0119893    -0.5405988
C           5.7397976    -0.5402452    -0.0583449
H           6.5391902    -1.2743518    -0.0005893
23
003_C11H10N2_5-6-18-16 (-45,) energy =    -534.6966682
N           0.8282559     0.7322386     0.7391633
C          -0.3607648     0.9670601     1.3104898
H          -0.3896129     1.8153863     1.9929919
C          -1.5047214     0.2119851     1.0786501
H          -2.4407643     0.4539962     1.5709030
C           0.9225007    -0.3014737    -0.1051049
N           2.1405570    -0.5549723    -0.7259355
H           2.1677211    -1.4442181    -1.2069476
C          -1.3982002    -0.8635379     0.1880421
H          -2.2596609    -1.4889868    -0.0312470
C           6.0397457     0.8206292     0.1256027
H           7.0501936     1.1665217     0.3240234
C           4.9599706     1.7018150     0.2118208
H           5.1299254     2.7430366     0.4737860
C          -0.1802300    -1.1306070    -0.4140962
H          -0.0686278    -1.9599500    -1.1081996
C           3.6585538     1.2755620    -0.0486374
H           2.8257527     1.9617247     0.0194352
C           3.4197853    -0.0682208    -0.3773718
C           4.5064684    -0.9526701    -0.4677933
H           4.3291685    -1.9951070    -0.7265298
C           5.8044165    -0.5100320    -0.2225897
H           6.6307845    -1.2121085    -0.2969906
23
003_C11H10N2_5-6-18-16 (-30,) energy =    -534.6976829
N           0.7853955     0.7750403     0.7054883
C          -0.4287136     1.0480267     1.2033559
H          -0.4890440     1.9486903     1.8126946
C          -1.5593778     0.2707789     0.9837938
H          -2.5167023     0.5464382     1.4133464
C           0.9203283    -0.3229951    -0.0480954
N           2.1598313    -0.6305329    -0.5900390
H           2.1869500    -1.5311313    -1.0483783
C          -1.4111546    -0.8730848     0.1887296
H          -2.2606610    -1.5191290    -0.0168541
C           6.0635228     0.8331382     0.0689818
H           7.0756064     1.1973790     0.2201758
C           4.9673745     1.6615774     0.3132006
H           5.1250630     2.6816795     0.6543780
C          -0.1678729    -1.1808211    -0.3354543
H          -0.0246399    -2.0637111    -0.9536137
C           3.6606803     1.2140626     0.1193799
H           2.8164149     1.8592227     0.3149237
C           3.4357410    -0.1034932    -0.3129785
C           4.5411813    -0.9364394    -0.5617218
H           4.3767535    -1.9581225    -0.9005019
C           5.8394939    -0.4712698    -0.3752470
H           6.6768850    -1.1353872    -0.5730453
23
003_C11H10N2_5-6-18-16 (-15,) energy =    -534.6982704
N           0.7721060     0.8082702     0.6926621
C          -0.4597151     1.1225632     1.1180553
H          -0.5364110     2.0614511     1.6645481
C          -1.5879597     0.3417829     0.9008416
H          -2.5596316     0.6523499     1.2700491
C           0.9280331    -0.3370027     0.0164681
N           2.1826927    -0.6972386    -0.4463278
H           2.2066546    -1.5997480    -0.9001529
C          -1.4178664    -0.8533095     0.1894301
H          -2.2643918    -1.5050217    -0.0103974
C           6.0824389     0.8484938     0.0152983
H           7.0941271     1.2299417     0.1190186
C           4.9876154     1.6238422     0.3978535
H           5.1455988     2.6204460     0.8025852
C          -0.1571048    -1.2037891    -0.2594833
H           0.0025986    -2.1264280    -0.8121089
C           3.6801928     1.1538813     0.2700356
H           2.8372201     1.7581476     0.5715760
C           3.4544088    -0.1331892    -0.2467349
C           4.5596227    -0.9142835    -0.6336001
H           4.3958962    -1.9126671    -1.0365411
C           5.8561498    -0.4274414    -0.5051047
H           6.6916842    -1.0519170    -0.8105954
23
003_C11H10N2_5-6-18-16 (0,) energy =    -534.6984578
N           0.7659370     0.8173126     0.6862626
C          -0.4790292     1.1701914     1.0368790
H          -0.5661202     2.1389821     1.5266508
C          -1.6076712     0.3920055     0.8134937
H          -2.5899131     0.7343550     1.1215367
C           0.9346450    -0.3648925     0.0798243
N           2.2024898    -0.7699902    -0.2997502
H           2.2250517    -1.6740195    -0.7503735
C          -1.4236955    -0.8435810     0.1785805
H          -2.2701001    -1.4951033    -0.0223126
C           6.0818143     0.8698578    -0.0382083
H           7.0887218     1.2731089     0.0185502
C           4.9991526     1.5879087     0.4695343
H           5.1616203     2.5606838     0.9271075
C          -0.1499579    -1.2334961    -0.1941622
H           0.0202415    -2.1871045    -0.6879804
C           3.6975776     1.0889798     0.4070263
H           2.8635751     1.6501975     0.8020025
C           3.4648971    -0.1663803    -0.1802248
C           4.5586209    -0.8903539    -0.6924050
H           4.3899343    -1.8643289    -1.1495337
C           5.8492067    -0.3775938    -0.6215751
H           6.6750651    -0.9579038    -1.0248749
23
003_C11H10N2_5-6-18-16 (15,) energy =    -534.6982703
N           0.7697641     0.8164968     0.6761289
C          -0.4835720     1.2057141     0.9495657
H          -0.5763154     2.2010942     1.3816108
C          -1.6137390     0.4315678     0.7189706
H          -2.6030089     0.8033571     0.9639846
C           0.9456382    -0.3982367     0.1407018
N           2.2243456    -0.8425214    -0.1519548
H           2.2493890    -1.7489934    -0.5977506
C          -1.4217795    -0.8397206     0.1619726
H          -2.2687053    -1.4899142    -0.0410851
C           6.0679523     0.8990822    -0.0870975
H           7.0665358     1.3262753    -0.0762848
C           5.0077633     1.5532974     0.5407255
H           5.1803323     2.4993520     1.0478524
C          -0.1391409    -1.2663387    -0.1325035
H           0.0373003    -2.2473118    -0.5669215
C           3.7184619     1.0201204     0.5409834
H           2.9013515     1.5337075     1.0259858
C           3.4734210    -0.1994609    -0.1125725
C           4.5439504    -0.8594745    -0.7447280
H           4.3654302    -1.8058745    -1.2530550
C           5.8243834    -0.3165393    -0.7297116
H           6.6328683    -0.8465479    -1.2265517
23
003_C11H10N2_5-6-18-16 (30,) energy =    -534.6976829
N           0.7853309     0.8270081     0.6395279
C          -0.4692361     1.2554951     0.8363221
H          -0.5593480     2.2796958     1.1956422
C          -1.6048425     0.4858156     0.6151193
H          -2.5952686     0.8899477     0.7960295
C           0.9567935    -0.4234866     0.1937377
N           2.2416962    -0.9049282    -0.0101615
H           2.2670670    -1.8156142    -0.4480933
C          -1.4165886    -0.8237170     0.1546396
H          -2.2677432    -1.4720811    -0.0364982
C           6.0443754     0.9221282    -0.1350900
H           7.0328412     1.3712984    -0.1677535
C           5.0242163     1.5068525     0.6164655
H           5.2183565     2.4174974     1.1776927
C          -0.1318076    -1.2910648    -0.0604960
H           0.0423153    -2.3021632    -0.4203762
C           3.7502586     0.9422170     0.6755186
H           2.9639769     1.4028095     1.2559262
C           3.4765899    -0.2297052    -0.0491818
C           4.5062185    -0.8197577    -0.8037923
H           4.3047902    -1.7301629    -1.3662169
C           5.7756756    -0.2508738    -0.8429032
H           6.5540652    -0.7255102    -1.4347441
23
003_C11H10N2_5-6-18-16 (45,) energy =    -534.6966683
N           0.8092201     0.8230790     0.5749815
C          -0.4425952     1.2863357     0.6920104
H          -0.5262259     2.3381314     0.9622486
C          -1.5843616     0.5181563     0.4951031
H          -2.5728202     0.9511449     0.6070419
C           0.9710743    -0.4620924     0.2397648
N           2.2598902    -0.9724003     0.1305061
H           2.2924578    -1.8921719    -0.2888113
C          -1.4050526    -0.8276130     0.1515449
H          -2.2614322    -1.4758888    -0.0149970
C           6.0026682     0.9569349    -0.1702376
H           6.9763171     1.4330314    -0.2434471
C           5.0373780     1.4506736     0.7096975
H           5.2616281     2.3141241     1.3308357
C          -0.1220179    -1.3316681     0.0207959
H           0.0463922    -2.3719826    -0.2464745
C           3.7865930     0.8455397     0.8218922
H           3.0424267     1.2315405     1.5046984
C           3.4764480    -0.2635734     0.0191091
C           4.4489957    -0.7618700    -0.8624438
H           4.2166410    -1.6243521    -1.4846833
C           5.7016636    -0.1589559    -0.9521977
H           6.4391188    -0.5604700    -1.6423283
23
003_C11H10N2_5-6-18-16 (60,) energy =    -534.6951867
N           0.8419287     0.8122585     0.5040343
C          -0.4033054     1.3048065     0.5353842
H          -0.4759774     2.3772782     0.7113956
C          -1.5527003     0.5410975     0.3620804
H          -2.5358373     0.9985123     0.3993203
C           0.9886876    -0.4992236     0.2862945
N           2.2777261    -1.0305605     0.2817296
H           2.3181811    -1.9630428    -0.1096272
C          -1.3881090    -0.8314620     0.1409946
H          -2.2507463    -1.4771770    -0.0018384
C           5.9529283     0.9911984    -0.2062466
H           6.9094063     1.4931334    -0.3221495
C           5.0673608     1.3851236     0.8001413
H           5.3370388     2.1931353     1.4752752
C          -0.1107090    -1.3665767     0.1018790
H           0.0473764    -2.4287609    -0.0676186
C           3.8434294     0.7405467     0.9666533
H           3.1604658     1.0396609     1.7516300
C           3.4762300    -0.2946235     0.0949987
C           4.3665123    -0.6922079    -0.9116771
H           4.0877101    -1.4988752    -1.5868852
C           5.5991078    -0.0560843    -1.0571036
H           6.2774911    -0.3768893    -1.8433316
23
003_C11H10N2_5-6-18-16 (75,) energy =    -534.6933088
N           0.8673301     0.8130686     0.4190082
C          -0.3695816     1.3231538     0.3616469
H          -0.4303084     2.4083657     0.4341145
C          -1.5254988     0.5620469     0.2193401
H          -2.5014547     1.0343468     0.1778582
C           0.9980529    -0.5152035     0.3311522
N           2.2823712    -1.0540522     0.4326183
H           2.3343904    -2.0065553     0.0924425
C          -1.3768144    -0.8269795     0.1323966
H          -2.2450183    -1.4712528     0.0194284
C           5.9078414     1.0158805    -0.2263398
H           6.8516513     1.5305623    -0.3840106
C           5.1329404     1.2966301     0.9022757
H           5.4763176     2.0282141     1.6289351
C          -0.1077277    -1.3811991     0.1894871
H           0.0385147    -2.4567088     0.1276690
C           3.9292591     0.6289302     1.1179700
H           3.3297840     0.8301814     1.9986336
C           3.4706605    -0.3056996     0.1820204
C           4.2476541    -0.5886538    -0.9468690
H           3.8942480    -1.3182529    -1.6723291
C           5.4640287     0.0661357    -1.1465052
H           6.0589745    -0.1632930    -2.0266137
23
003_C11H10N2_5-6-18-16 (90,) energy =    -534.6915186
N           0.8894832     0.8020583     0.2800815
C          -0.3415316     1.3086184     0.1335247
H          -0.3938920     2.3949379     0.0704626
C          -1.5011101     0.5433352     0.0592995
H          -2.4715140     1.0132232    -0.0626915
C           1.0091310    -0.5282153     0.3617378
N           2.2864525    -1.0513705     0.5618505
H           2.3553482    -2.0348105     0.3294014
C          -1.3631956    -0.8469650     0.1460103
H          -2.2348064    -1.4944331     0.0924788
C           5.8773369     1.0364194    -0.2403431
H           6.8104588     1.5578274    -0.4358102
C           5.2408814     1.1763496     0.9952293
H           5.6795016     1.8048732     1.7656777
C          -0.1011334    -1.3984567     0.3004004
H           0.0367371    -2.4742260     0.3756188
C           4.0501436     0.4983020     1.2529502
H           3.5529353     0.5858366     2.2135066
C           3.4734982    -0.3047499     0.2649752
C           4.1108111    -0.4446236    -0.9720519
H           3.6603780    -1.0707274    -1.7385107
C           5.3121016     0.2207838    -1.2215944
H           5.8017958     0.1051563    -2.1849181
23
003_C11H10N2_5-6-18-16 (105,) energy =    -534.6929628
N           0.9141129     0.6008435    -0.5342019
C          -0.3136229     1.1087519    -0.7021327
H          -0.3609472     2.0349483    -1.2736080
C          -1.4760895     0.5314505    -0.2012443
H          -2.4439842     0.9918172    -0.3701788
C           1.0285791    -0.5343625     0.1635291
N           2.3016841    -1.0898702     0.3067453
H           2.3464820    -1.7782544     1.0482810
C          -1.3445810    -0.6584356     0.5240805
H          -2.2185114    -1.1533072     0.9400153
C           5.8874221     1.1104867    -0.1115891
H           6.8138359     1.6675788    -0.2211621
C           5.4424034     0.7313880     1.1553017
H           6.0165827     0.9968197     2.0390908
C          -0.0853819    -1.2056385     0.7130247
H           0.0473625    -2.1298365     1.2700188
C           4.2464640     0.0258026     1.2953626
H           3.8855624    -0.2498266     2.2837655
C           3.5053977    -0.3359521     0.1647403
C           3.9498064     0.0482317    -1.1048599
H           3.3609111    -0.2235118    -1.9737254
C           5.1329159     0.7727445    -1.2379789
H           5.4714792     1.0677027    -2.2276577
23
003_C11H10N2_5-6-18-16 (120,) energy =    -534.6948088
N           0.8787778     0.5615821    -0.6146835
C          -0.3597509     1.0141928    -0.8499788
H          -0.4222759     1.8801078    -1.5078315
C          -1.5143167     0.4513867    -0.3164803
H          -2.4916313     0.8632217    -0.5454851
C           1.0133721    -0.4974030     0.1907001
N           2.2948408    -0.9981340     0.4203143
H           2.3315173    -1.6372663     1.2043464
C          -1.3626141    -0.6608048     0.5201152
H          -2.2297534    -1.1413927     0.9657853
C           5.9368775     1.0743435    -0.1154062
H           6.8797100     1.5968055    -0.2511180
C           5.5798698     0.5818681     1.1402637
H           6.2397907     0.7229584     1.9922457
C          -0.0922751    -1.1480817     0.7816887
H           0.0557642    -2.0104346     1.4270071
C           4.3633123    -0.0774425     1.3146597
H           4.0762761    -0.4403988     2.2994982
C           3.5046767    -0.2806950     0.2261148
C           3.8630812     0.2138655    -1.0348596
H           3.1914084     0.0692318    -1.8717432
C           5.0700678     0.8917367    -1.1956675
H           5.3385666     1.2724549    -2.1776415
23
003_C11H10N2_5-6-18-16 (135,) energy =    -534.6963739
N           0.8291043     0.5301476    -0.6724228
C          -0.4211511     0.9119987    -0.9661474
H          -0.5029049     1.7128334    -1.6998456
C          -1.5637159     0.3544293    -0.4036957
H          -2.5509967     0.7054896    -0.6849678
C           0.9889664    -0.4469017     0.2273144
N           2.2762689    -0.8746913     0.5355289
H           2.3098358    -1.4855406     1.3409875
C          -1.3867576    -0.6728144     0.5314648
H          -2.2436651    -1.1455956     1.0043233
C           5.9931840     1.0180195    -0.1257967
H           6.9567449     1.4921831    -0.2895329
C           5.6942103     0.4315412     1.1047319
H           6.4222576     0.4489835     1.9115612
C          -0.1050263    -1.0842296     0.8562832
H           0.0616669    -1.8778609     1.5804483
C           4.4529398    -0.1654726     1.3144926
H           4.2189138    -0.6039492     2.2828678
C           3.4979841    -0.2087510     0.2865290
C           3.7992067     0.3779864    -0.9518530
H           3.0606416     0.3613216    -1.7414410
C           5.0374663     0.9892902    -1.1433543
H           5.2578273     1.4417352    -2.1068378
23
003_C11H10N2_5-6-18-16 (150,) energy =    -534.6975276
N           0.7967955     0.5061917    -0.7299908
C          -0.4593863     0.8128593    -1.0825021
H          -0.5516229     1.5454423    -1.8831106
C          -1.5941145     0.2606724    -0.5007902
H          -2.5861193     0.5484049    -0.8326324
C           0.9708481    -0.3857882     0.2525688
N           2.2582551    -0.7356102     0.6350742
H           2.2888925    -1.3212769     1.4585423
C          -1.4030890    -0.6774606     0.5218612
H          -2.2536613    -1.1423807     1.0134768
C           6.0434889     0.9623158    -0.1431575
H           7.0264028     1.3847446    -0.3310551
C           5.7794122     0.2886113     1.0507237
H           6.5548698     0.1835630     1.8050588
C          -0.1164850    -1.0101213     0.9084451
H           0.0600568    -1.7333610     1.7008418
C           4.5163930    -0.2442233     1.2918608
H           4.3156356    -0.7566161     2.2313659
C           3.4934340    -0.1290590     0.3342656
C           3.7586871     0.5460495    -0.8684395
H           2.9728014     0.6528307    -1.6021309
C           5.0254231     1.0860435    -1.0897058
H           5.2155718     1.6075802    -2.0244115
23
003_C11H10N2_5-6-18-16 (165,) energy =    -534.6982295
N           0.7729836     0.4859549    -0.7553758
C          -0.4841730     0.7108620    -1.1629750
H          -0.5830875     1.3804822    -2.0161368
C          -1.6115762     0.1521973    -0.5742795
H          -2.6042143     0.3725153    -0.9524876
C           0.9556896    -0.3279561     0.2921751
N           2.2386565    -0.5912155     0.7423722
H           2.2681102    -1.1728949     1.5681281
C          -1.4123686    -0.7017571     0.5186014
H          -2.2571010    -1.1675674     1.0193128
C           6.0750342     0.9084416    -0.1772765
H           7.0713787     1.2803688    -0.3979533
C           5.8377271     0.1627155     0.9792961
H           6.6482309    -0.0510853     1.6712690
C          -0.1256578    -0.9498683     0.9621263
H           0.0565195    -1.6068841     1.8090632
C           4.5598270    -0.3083536     1.2612778
H           4.3855308    -0.8828653     2.1698119
C           3.4870680    -0.0521771     0.3867044
C           3.7252584     0.6967984    -0.7780460
H           2.9048222     0.9064225    -1.4485590
C           5.0116934     1.1678881    -1.0422044
H           5.1787846     1.7469413    -1.9470797
23
003_C11H10N2_5-6-18-16 (180,) energy =    -534.6984577
N           0.7679984     0.4796873    -0.7669793
C          -0.4812095     0.6257068    -1.2312731
H          -0.5744522     1.2368587    -2.1278311
C          -1.6068459     0.0590641    -0.6471736
H          -2.5928257     0.2149642    -1.0719455
C           0.9443520    -0.2621679     0.3341020
N           2.2167495    -0.4401061     0.8488015
H           2.2448740    -1.0140317     1.6798601
C          -1.4148780    -0.7159119     0.5044345
H          -2.2585544    -1.1842028     1.0045918
C           6.0914192     0.8530475    -0.2102393
H           7.0974225     1.1742395    -0.4641970
C           5.8663983     0.0420333     0.9043043
H           6.6971653    -0.2757287     1.5290401
C          -0.1366371    -0.8836316     1.0057742
H           0.0397783    -1.4800388     1.8976042
C           4.5771994    -0.3673893     1.2266128
H           4.4144257    -1.0001015     2.0979509
C           3.4772605     0.0249685     0.4399778
C           3.7022956     0.8411697    -0.6816660
H           2.8634844     1.1460097    -1.2899410
C           5.0025800     1.2424687    -0.9902124
H           5.1591527     1.8738042    -1.8614027
