16
257_C6H7NOS_4-0-2-12 (-165,) energy =    -761.0159982
N           0.9446996    -0.9349809    -0.1932076
H           0.8709442    -0.2352303     0.5318331
C           2.2081479    -1.2634157    -0.6199458
O           2.4415566    -2.2514794    -1.3122002
C          -0.1388489    -1.9028290    -0.2744540
H          -0.1944910    -2.5367055     0.6211929
H           0.0451593    -2.5410726    -1.1390167
H          -1.0931359    -1.3833406    -0.4034855
C           4.5876911     1.3841144     0.6927199
H           4.7811107     2.3217372     1.2023982
C           3.2871475     0.8462062     0.4856001
H           2.3821013     1.3500352     0.8107892
C           3.2997932    -0.3559113    -0.1861471
S           4.9286039    -0.8324549    -0.5843335
C           5.5705403     0.5828908     0.1702818
H           6.6397304     0.7493651     0.1889333
16
257_C6H7NOS_4-0-2-12 (-150,) energy =    -761.0136253
N           0.9457145    -0.8923389    -0.4140471
H           0.8432344    -0.0686298     0.1635556
C           2.2384520    -1.2666412    -0.7103878
O           2.5058020    -2.3088741    -1.3025260
C          -0.0816190    -1.9099897    -0.2266642
H          -0.0892761    -2.3026002     0.7996827
H           0.1276756    -2.7297741    -0.9144457
H          -1.0664699    -1.4928265    -0.4565961
C           4.5846178     1.3155950     0.7811853
H           4.7696265     2.2008239     1.3798560
C           3.2928305     0.7652323     0.5550481
H           2.3894340     1.1980704     0.9737736
C           3.3153446    -0.3645435    -0.2329164
S           4.9463418    -0.7625745    -0.7058265
C           5.5721530     0.5946638     0.1596414
H           6.6373360     0.7858974     0.1711256
16
257_C6H7NOS_4-0-2-12 (-135,) energy =    -761.0096391
N           0.9279426    -0.8578765    -0.5928612
H           0.8426500     0.0299934    -0.1129941
C           2.2368845    -1.2461562    -0.8345342
O           2.5134368    -2.3030568    -1.3921399
C          -0.0335244    -1.8609592    -0.1376019
H           0.0665091    -2.0716341     0.9365272
H           0.1455143    -2.7804727    -0.6962456
H          -1.0519845    -1.5177756    -0.3410829
C           4.5420204     1.2603652     0.8331276
H           4.7102804     2.1048964     1.4923860
C           3.2593368     0.7131095     0.5550753
H           2.3462087     1.1003158     0.9963207
C           3.3034288    -0.3631825    -0.3044094
S           4.9457527    -0.7154843    -0.7774880
C           5.5452733     0.5909913     0.1795975
H           6.6081845     0.7913021     0.2184703
16
257_C6H7NOS_4-0-2-12 (-120,) energy =    -761.0044141
N           0.9055624    -0.8508968    -0.7309889
H           0.8325813     0.0768306    -0.3263997
C           2.2331182    -1.2258941    -0.9557726
O           2.5205702    -2.2703966    -1.5265448
C           0.0421706    -1.8096253    -0.0333202
H           0.2884548    -1.8957499     1.0349378
H           0.1623181    -2.7872419    -0.5030739
H          -1.0019251    -1.5006747    -0.1354783
C           4.4825272     1.2048046     0.8853281
H           4.6275221     2.0228753     1.5823487
C           3.2107418     0.6742943     0.5361050
H           2.2809776     1.0464370     0.9545101
C           3.2855538    -0.3702246    -0.3606938
S           4.9453324    -0.7107563    -0.7821422
C           5.5091607     0.5555832     0.2473474
H           6.5702475     0.7495080     0.3369585
16
257_C6H7NOS_4-0-2-12 (-105,) energy =    -760.9987016
N           0.8511934    -0.8530337    -0.8339510
H           0.7795569     0.1109213    -0.5186574
C           2.1974196    -1.2045086    -1.0672269
O           2.4931523    -2.2176822    -1.6831463
C           0.1118562    -1.7286203     0.0880343
H           0.4930710    -1.6839794     1.1192664
H           0.1876195    -2.7575639    -0.2699762
H          -0.9431463    -1.4406633     0.0851304
C           4.3941902     1.1419186     0.9330322
H           4.5176370     1.9339747     1.6634092
C           3.1344745     0.6311898     0.5188738
H           2.1901067     0.9926107     0.9127155
C           3.2376515    -0.3817986    -0.4117529
S           4.9111836    -0.7152830    -0.7850900
C           5.4408955     0.5107896     0.3089273
H           6.4986989     0.6967998     0.4435272
16
257_C6H7NOS_4-0-2-12 (-90,) energy =    -761.0005307
N           0.7779202    -0.6538603    -0.7377802
H           0.1818105    -0.7529423    -1.5612295
C           2.0771413    -1.0263371    -1.1967472
O           2.2492007    -1.6884942    -2.2101329
C           0.2207361    -1.5410587     0.3054659
H          -0.7730788    -1.1780249     0.5822155
H           0.8558525    -1.5039850     1.1952582
H           0.1412592    -2.5873270    -0.0225462
C           4.4452932     0.8913339     1.0127031
H           4.6284305     1.6371021     1.7784713
C           3.1544526     0.5442181     0.5327963
H           2.2275598     0.9950832     0.8668643
C           3.1880731    -0.4226702    -0.4493107
S           4.8279332    -0.9123562    -0.7972538
C           5.4426599     0.1831559     0.3883518
H           6.5096023     0.2564159     0.5555349
16
257_C6H7NOS_4-0-2-12 (-75,) energy =    -761.0044673
N           0.7591021    -0.7384944    -0.8279931
H           0.1407200    -0.9396575    -1.6134602
C           2.0639113    -1.0054667    -1.2948797
O           2.2705637    -1.5486312    -2.3724635
C           0.2844078    -1.4837379     0.3523954
H          -0.6976203    -1.1001119     0.6436564
H           0.9716970    -1.3297821     1.1874282
H           0.2023612    -2.5638222     0.1654354
C           4.3902297     0.8355902     1.0350815
H           4.5601558     1.5585407     1.8254482
C           3.1067483     0.5024531     0.5239274
H           2.1782118     0.9506724     0.8580829
C           3.1555424    -0.4351846    -0.4845332
S           4.8006924    -0.9087593    -0.8243051
C           5.3973376     0.1466049     0.4064290
H           6.4612276     0.2110330     0.5946752
16
257_C6H7NOS_4-0-2-12 (-60,) energy =    -761.0073535
N           0.7572843    -0.8348154    -0.8819096
H           0.1363799    -1.1083078    -1.6406793
C           2.0649495    -0.9734013    -1.3529927
O           2.3014158    -1.4049625    -2.4761233
C           0.3309503    -1.4302174     0.3915826
H          -0.6235786    -0.9903442     0.6961250
H           1.0684309    -1.2180523     1.1666456
H           0.2097660    -2.5203030     0.3210301
C           4.3675208     0.8000372     1.0653936
H           4.5315796     1.5037198     1.8742158
C           3.0865312     0.4809067     0.5366842
H           2.1603251     0.9309809     0.8755093
C           3.1399214    -0.4343140    -0.4913323
S           4.7871201    -0.8971632    -0.8328665
C           5.3777694     0.1239389     0.4293695
H           6.4398863     0.1772188     0.6302838
16
257_C6H7NOS_4-0-2-12 (-45,) energy =    -761.0088700
N           0.8053398    -0.9635003    -0.9352718
H           0.1948776    -1.2802050    -1.6823737
C           2.1116468    -0.9711076    -1.3957653
O           2.3799867    -1.3215772    -2.5415688
C           0.3741909    -1.3791967     0.3994534
H          -0.4274444    -0.7294477     0.7686289
H           1.2123234    -1.3220385     1.0939223
H           0.0077608    -2.4140220     0.3933713
C           4.3616877     0.7830419     1.0967788
H           4.5084281     1.4643465     1.9278237
C           3.0877255     0.4483360     0.5590911
H           2.1543324     0.8683887     0.9164279
C           3.1612996    -0.4332319    -0.4967965
S           4.8197501    -0.8392247    -0.8561006
C           5.3871040     0.1526505     0.4395742
H           6.4476958     0.2233348     0.6430062
16
257_C6H7NOS_4-0-2-12 (-30,) energy =    -761.0098587
N           0.8398868    -1.1189578    -0.9765180
H           0.2504789    -1.5060394    -1.7037373
C           2.1399352    -1.0214964    -1.4199225
O           2.4417337    -1.3591862    -2.5633574
C           0.3726770    -1.2997199     0.3934059
H          -0.0720613    -0.3845480     0.8059555
H           1.1930734    -1.6105284     1.0446795
H          -0.3915862    -2.0826361     0.4117051
C           4.3217587     0.7551707     1.1258153
H           4.4465247     1.3858094     1.9994013
C           3.0575624     0.3576629     0.6081827
H           2.1138183     0.6763735     1.0342907
C           3.1573067    -0.4400549    -0.5109345
S           4.8285488    -0.6887706    -0.9509008
C           5.3662882     0.2549370     0.3915918
H           6.4251743     0.3960467     0.5653332
16
257_C6H7NOS_4-0-2-12 (-15,) energy =    -761.0102047
N           1.0254079    -2.0163542    -0.1760792
H           0.6107961    -2.9359145    -0.2562036
C           2.3956095    -2.0870483    -0.1950729
O           2.9611641    -3.1761561    -0.2944530
C           0.1554815    -0.9183944     0.2110789
H          -0.7702543    -1.3344480     0.6179551
H          -0.1110708    -0.2711954    -0.6355538
H           0.6209351    -0.3044656     0.9872504
C           4.0388700     1.3404638    -0.1782451
H           4.0092321     2.4157607    -0.3173660
C           2.9068334     0.4913400    -0.3270331
H           1.9306743     0.8577977    -0.6183853
C           3.1927683    -0.8383183    -0.1017412
S           4.8851592    -1.0526836     0.2760792
C           5.1719471     0.6453632     0.1572449
H           6.1629337     1.0419368     0.3363746
16
257_C6H7NOS_4-0-2-12 (0,) energy =    -761.0100200
N           1.0673138    -2.0029410     0.0335297
H           0.6743757    -2.9309837     0.1202994
C           2.4373620    -2.0366269     0.0585711
O           3.0252705    -3.1177589     0.1200500
C           0.1499269    -0.8833202    -0.0653994
H          -0.8461691    -1.2781330    -0.2797722
H           0.4285582    -0.2125868    -0.8844283
H           0.0878511    -0.3004446     0.8636743
C           4.0613028     1.4061456    -0.0044297
H           4.0232147     2.4867074     0.0822507
C           2.9230949     0.5623330     0.1255942
H           1.9359516     0.9467260     0.3434493
C           3.2192590    -0.7767949    -0.0229286
S           4.9297651    -1.0021433    -0.3085220
C           5.2101177     0.6992930    -0.2488656
H           6.2089976     1.0902757    -0.3934702
16
257_C6H7NOS_4-0-2-12 (15,) energy =    -761.0102047
N           1.0586819    -1.9863607     0.1826200
H           0.6517758    -2.9080838     0.2762489
C           2.4278814    -2.0524580     0.1217991
O           3.0014426    -3.1406115     0.1757074
C           0.1648692    -0.8870348    -0.1410721
H          -0.7813295    -1.3015165    -0.4996308
H           0.5835399    -0.2624713    -0.9351944
H          -0.0547275    -0.2508694     0.7270855
C           4.0595178     1.3801432     0.0508866
H           4.0357233     2.4536879     0.2039992
C           2.9395991     0.5261446     0.2537136
H           1.9808376     0.8868404     0.6039766
C           3.2150163    -0.8000803    -0.0028702
S           4.8838558    -1.0053141    -0.4780187
C           5.1732357     0.6920724    -0.3562315
H           6.1515194     1.0935050    -0.5869366
16
257_C6H7NOS_4-0-2-12 (30,) energy =    -761.0098587
N           1.0700945    -1.9083217     0.2900343
H           0.6610897    -2.8292693     0.3932434
C           2.4335539    -2.0093985     0.1257360
O           2.9895468    -3.1063034     0.1409544
C           0.1833323    -0.8638069    -0.2102588
H          -0.6966251    -1.3278322    -0.6660506
H           0.6841620    -0.2630399    -0.9731861
H          -0.1636648    -0.1944612     0.5879254
C           4.0637172     1.4168966     0.0983601
H           4.0472996     2.4818793     0.3032180
C           2.9616312     0.5473450     0.3295187
H           2.0217665     0.8788066     0.7544717
C           3.2261706    -0.7628296    -0.0054247
S           4.8613671    -0.9371483    -0.5921321
C           5.1525675     0.7550204    -0.4082804
H           6.1141670     1.1719001    -0.6782348
16
257_C6H7NOS_4-0-2-12 (45,) energy =    -761.0088700
N           1.0579947    -1.8122408     0.4230225
H           0.6501417    -2.7248187     0.6018646
C           2.4104709    -1.9719983     0.1703649
O           2.9333905    -3.0828635     0.1856797
C           0.1662877    -0.8920234    -0.2828404
H          -0.3890320    -1.4086097    -1.0765217
H           0.7474973    -0.0928871    -0.7428367
H          -0.5549706    -0.4425817     0.4091653
C           4.1154687     1.4107546     0.1206977
H           4.1429573     2.4639294     0.3784020
C           3.0235001     0.5483612     0.4173413
H           2.1352643     0.8641904     0.9527344
C           3.2270312    -0.7466597    -0.0057065
S           4.7930340    -0.9191364    -0.7555560
C           5.1360189     0.7578436    -0.5219329
H           6.0754944     1.1712900    -0.8649835
16
257_C6H7NOS_4-0-2-12 (60,) energy =    -761.0073535
N           1.0240806    -1.7194620     0.5323660
H           0.6190901    -2.6259505     0.7566719
C           2.3536331    -1.9441189     0.1677670
O           2.8231006    -3.0756019     0.1136319
C           0.1177908    -0.9290288    -0.3113761
H          -0.2015214    -1.4791092    -1.2077026
H           0.6134304    -0.0118999    -0.6320478
H          -0.7699810    -0.6554914     0.2668959
C           4.1339351     1.3913751     0.1450047
H           4.1889270     2.4377596     0.4248856
C           3.0359757     0.5422023     0.4543645
H           2.1663012     0.8558303     1.0205189
C           3.2052730    -0.7463870    -0.0018961
S           4.7435466    -0.9295288    -0.8045865
C           5.1244167     0.7348106    -0.5406390
H           6.0624308     1.1389126    -0.8985898
16
257_C6H7NOS_4-0-2-12 (75,) energy =    -761.0044673
N           1.0296008    -1.6304040     0.5973779
H           0.6501588    -2.5291937     0.8940637
C           2.3283783    -1.9066028     0.1191775
O           2.7329999    -3.0510885    -0.0400499
C           0.0751764    -0.9954065    -0.3299257
H          -0.1704282    -1.6366350    -1.1882799
H           0.4938254    -0.0596892    -0.7074365
H          -0.8459115    -0.7628510     0.2121961
C           4.1716584     1.3840795     0.1799657
H           4.2417194     2.4234822     0.4815370
C           3.0631422     0.5439805     0.4715284
H           2.1923263     0.8522423     1.0384453
C           3.2175606    -0.7377515    -0.0099855
S           4.7511526    -0.9242963    -0.8221017
C           5.1542934     0.7279408    -0.5186619
H           6.1001196     1.1259339    -0.8628469
16
257_C6H7NOS_4-0-2-12 (90,) energy =    -761.0005307
N           1.0375037    -1.5109771     0.6338425
H           0.7116149    -2.3955813     1.0269133
C           2.3066248    -1.8261961     0.0617118
O           2.6347705    -2.9712590    -0.2142564
C           0.0181797    -1.0735383    -0.3436865
H          -0.1752830    -1.8245706    -1.1228582
H           0.3472988    -0.1492153    -0.8271999
H          -0.9137851    -0.8648510     0.1891769
C           4.2412904     1.3986111     0.2197197
H           4.3358510     2.4285226     0.5459880
C           3.1135521     0.5787711     0.4901605
H           2.2448439     0.8883981     1.0589206
C           3.2397698    -0.6950357    -0.0217210
S           4.7675458    -0.8966843    -0.8434488
C           5.2095529     0.7362281    -0.4942743
H           6.1664385     1.1199474    -0.8241419
16
257_C6H7NOS_4-0-2-12 (105,) energy =    -760.9987016
N           1.0930998    -1.6668265     0.4697731
H           1.1326899    -0.9911326     1.2284702
C           2.3420286    -1.7645239    -0.1789980
O           2.5915135    -2.6839915    -0.9442918
C          -0.0565056    -1.3665743    -0.3971673
H          -0.9764448    -1.4488948     0.1884036
H          -0.0929095    -2.1069312    -1.1991539
H          -0.0047188    -0.3626719    -0.8446660
C           4.2702788     1.4251478     0.4846621
H           4.3296913     2.4320494     0.8829850
C           3.1173631     0.5997079     0.5778894
H           2.1955954     0.9207427     1.0520698
C           3.2830609    -0.6349047    -0.0146738
S           4.8825247    -0.7860060    -0.7003719
C           5.3004901     0.8052641    -0.1770248
H           6.2823271     1.2064513    -0.3931504
16
257_C6H7NOS_4-0-2-12 (120,) energy =    -761.0044141
N           1.0924772    -1.5353258     0.4206462
H           1.0985845    -0.8020924     1.1219755
C           2.3136889    -1.6445238    -0.2497186
O           2.5284268    -2.5391540    -1.0577591
C          -0.1264195    -1.4858104    -0.3933018
H          -0.9984745    -1.6518111     0.2455241
H          -0.0805878    -2.2874786    -1.1323464
H          -0.2422874    -0.5257186    -0.9167994
C           4.3715523     1.4410510     0.5240116
H           4.4709036     2.4334088     0.9499684
C           3.1803723     0.6674638     0.5824337
H           2.2686970     1.0210226     1.0534255
C           3.2969450    -0.5567994    -0.0407836
S           4.8948490    -0.7629426    -0.7136069
C           5.3800528     0.7929961    -0.1434589
H           6.3815131     1.1540439    -0.3391039
16
257_C6H7NOS_4-0-2-12 (135,) energy =    -761.0096391
N           1.0870841    -1.4318499     0.3546794
H           1.0496203    -0.6461294     0.9927393
C           2.2947982    -1.5594684    -0.3143823
O           2.4972911    -2.4482681    -1.1350429
C          -0.1557943    -1.6391093    -0.3871048
H          -0.9704012    -1.8580013     0.3092080
H          -0.0182406    -2.4961355    -1.0475746
H          -0.4268064    -0.7628913    -0.9928961
C           4.4625477     1.4210574     0.5769757
H           4.5983502     2.3944100     1.0355724
C           3.2391244     0.6966153     0.5986309
H           2.3393744     1.0753617     1.0734355
C           3.3121542    -0.5111985    -0.0608626
S           4.9064596    -0.7633879    -0.7240099
C           5.4504635     0.7521962    -0.1000375
H           6.4685512     1.0758745    -0.2736552
16
257_C6H7NOS_4-0-2-12 (150,) energy =    -761.0136220
N           1.0334673    -1.2777851     0.2698248
H           0.9412354    -0.4318201     0.8162205
C           2.2448617    -1.4552175    -0.3635178
O           2.4477807    -2.3707552    -1.1565185
C          -0.1929629    -1.7367668    -0.3719728
H          -0.9648184    -1.9086553     0.3837740
H           0.0234049    -2.6763763    -0.8810599
H          -0.5676921    -1.0139246    -1.1100342
C           4.5339066     1.3978542     0.6452954
H           4.7170975     2.3352638     1.1590491
C           3.2833959     0.7204151     0.6518942
H           2.4132668     1.1002836     1.1785821
C           3.2962481    -0.4481094    -0.0776103
S           4.8660486    -0.7233399    -0.7863084
C           5.4812510     0.7327989    -0.0905958
H           6.5079939     1.0262192    -0.2667723
16
257_C6H7NOS_4-0-2-12 (165,) energy =    -761.0159995
N           0.9662162    -1.1067359     0.1394280
H           0.8257214    -0.1820623     0.5216118
C           2.1999108    -1.3807056    -0.3984058
O           2.4167148    -2.3667875    -1.0988139
C          -0.2204387    -1.7966748    -0.3437456
H          -0.9650156    -1.8586899     0.4554816
H           0.0736336    -2.8030261    -0.6428915
H          -0.6674378    -1.2923168    -1.2114791
C           4.5743526     1.3580550     0.7215199
H           4.7980364     2.2426981     1.3077568
C           3.3147736     0.6969415     0.7313433
H           2.4820760     1.0228737     1.3470465
C           3.2752844    -0.4032247    -0.0959841
S           4.8080954    -0.6432388    -0.8907028
C           5.4760561     0.7465033    -0.1114755
H           6.4990210     1.0393206    -0.3090786
16
257_C6H7NOS_4-0-2-12 (180,) energy =    -761.0165562
N           0.9983456    -1.0069409    -0.0586060
H           0.8500185    -0.0985323     0.3543294
C           2.2527836    -1.3374277    -0.4943230
O           2.4937282    -2.3611714    -1.1315049
C          -0.1574489    -1.8429960    -0.3270410
H          -0.7244397    -2.0260184     0.5926278
H           0.2091292    -2.7915994    -0.7207124
H          -0.8243380    -1.3868653    -1.0698251
C           4.6291904     1.3506235     0.7405112
H           4.8435524     2.2302257     1.3377615
C           3.3553569     0.7195323     0.6845360
H           2.4997991     1.0665912     1.2557737
C           3.3334238    -0.3820198    -0.1413127
S           4.8995170    -0.6604649    -0.8537082
C           5.5584823     0.7154777    -0.0428757
H           6.5981021     0.9810816    -0.1837359
