25
349_C11H14_0-6-20-18 (-165,) energy =    -427.6059769
C           1.4968637    -0.7810607    -1.7031334
H           2.2564222    -1.1170860    -2.4223133
H           1.1049125     0.1761986    -2.0644927
C           0.3966874    -1.8476674    -1.5476787
H           0.1547017    -2.3355538    -2.4976504
H          -0.5270274    -1.3762286    -1.1908413
C           2.1283247    -0.6925320    -0.2999769
H           1.3920394    -0.2041637     0.3598306
C           2.2063888    -2.1845870     0.1139002
H           2.2796080    -2.3226810     1.1974862
H           3.1101120    -2.6247672    -0.3258558
C           0.9352601    -2.8447704    -0.4807139
H           0.1829925    -3.0266968     0.2945891
H           1.1710423    -3.8198053    -0.9200260
C           5.8679538     1.4898526     0.0818650
H           6.8028971     2.0344494     0.1838583
C           5.4335064     0.6376912     1.0992209
H           6.0299601     0.5149414     1.9998872
C           4.2346669    -0.0612437     0.9647284
H           3.9110597    -0.7178230     1.7682230
C           3.4381506     0.0706042    -0.1846472
C           3.8880698     0.9322086    -1.1947634
H           3.2968179     1.0614877    -2.0961697
C           5.0887121     1.6344906    -1.0651385
H           5.4133505     2.2948536    -1.8654872
25
349_C11H14_0-6-20-18 (-150,) energy =    -427.6057701
C           1.6247160    -0.7686569    -1.6362192
H           2.4228221    -1.0684782    -2.3270520
H           1.2090426     0.1701696    -2.0168514
C           0.5522644    -1.8847456    -1.5307284
H           0.6162269    -2.5673160    -2.3847108
H          -0.4597439    -1.4656776    -1.5433320
C           2.2198544    -0.6280418    -0.2140258
H           1.4984428    -0.0537634     0.3912361
C           2.1863814    -2.0827886     0.3017614
H           2.2972473    -2.1623184     1.3885152
H           3.0123942    -2.6461484    -0.1534030
C           0.8283088    -2.6190218    -0.1871248
H           0.0491759    -2.3718437     0.5442240
H           0.8263490    -3.7088906    -0.2933094
C           6.0332024     1.4442170     0.0540164
H           6.9836595     1.9665606     0.1241313
C           5.7116296     0.4383760     0.9658054
H           6.4125227     0.1714515     1.7528979
C           4.4912841    -0.2324068     0.8725214
H           4.2612122    -1.0115380     1.5933301
C           3.5629997     0.0809681    -0.1321527
C           3.9018073     1.0975488    -1.0386802
H           3.2056143     1.3693666    -1.8268810
C           5.1204625     1.7716088    -0.9491722
H           5.3562526     2.5530362    -1.6673593
25
349_C11H14_0-6-20-18 (-135,) energy =    -427.6059969
C           1.7168933    -0.8747387    -1.6883499
H           2.5541561    -1.2578806    -2.2850272
H           1.3621352     0.0344103    -2.1844419
C           0.6053264    -1.9489445    -1.5575618
H           0.7045502    -2.7094769    -2.3392653
H          -0.3901008    -1.5076952    -1.6778814
C           2.2128458    -0.6166311    -0.2423745
H           1.4629700     0.0221212     0.2533661
C           2.1078086    -2.0160639     0.3935257
H           2.1515921    -1.9999731     1.4881941
H           2.9408151    -2.6396807     0.0407741
C           0.7684258    -2.5615663    -0.1360267
H          -0.0489941    -2.2271644     0.5142988
H           0.7388225    -3.6561668    -0.1417673
C           6.0213478     1.4571637     0.0478658
H           6.9698702     1.9827601     0.1198326
C           5.7752199     0.3350687     0.8377402
H           6.5329009    -0.0198622     1.5319679
C           4.5556864    -0.3398813     0.7434694
H           4.3850970    -1.2098407     1.3703176
C           3.5568333     0.0864083    -0.1427867
C           3.8192245     1.2225161    -0.9260320
H           3.0609715     1.5839539    -1.6159608
C           5.0344294     1.8998079    -0.8354216
H           5.2106918     2.7748982    -1.4560349
25
349_C11H14_0-6-20-18 (-120,) energy =    -427.6063166
C           1.8184838    -0.9926362    -1.7155039
H           2.6838421    -1.4538948    -2.2075936
H           1.5365891    -0.1224052    -2.3172019
C           0.6648499    -2.0190213    -1.5663191
H           0.7877755    -2.8500491    -2.2689064
H          -0.3051483    -1.5622537    -1.7911330
C           2.2155122    -0.6130284    -0.2646744
H           1.4440030     0.0757064     0.1163539
C           2.0382781    -1.9495480     0.4767543
H           2.0262431    -1.8421111     1.5672482
H           2.8662576    -2.6251088     0.2219147
C           0.7166194    -2.5047093    -0.0874777
H          -0.1283530    -2.0901628     0.4755590
H           0.6511099    -3.5941188     0.0015923
C           6.0180902     1.4644482     0.0317312
H           6.9655945     1.9923629     0.0998849
C           5.8381926     0.2514272     0.6942243
H           6.6463367    -0.1721234     1.2854206
C           4.6190684    -0.4266130     0.6072367
H           4.4995325    -1.3664600     1.1374416
C           3.5564677     0.0898096    -0.1453044
C           3.7517912     1.3180397    -0.7988452
H           2.9378018     1.7479036    -1.3785899
C           4.9653364     1.9977226    -0.7161592
H           5.0890595     2.9460333    -1.2332473
25
349_C11H14_0-6-20-18 (-105,) energy =    -427.6065657
C           1.3474614    -0.9252273     0.5802759
H           1.1261312     0.1412839     0.7119748
H           1.6512051    -1.3101371     1.5594566
C           0.1203880    -1.6684711    -0.0118542
H          -0.7964202    -1.0879145     0.1360180
H          -0.0386449    -2.6330339     0.4824166
C           2.4655559    -1.0724887    -0.4861977
H           2.8574231    -2.0987960    -0.4090246
C           1.6687247    -0.9881706    -1.7997182
H           2.2432945    -1.3108275    -2.6751935
H           1.3503471     0.0474823    -1.9785581
C           0.4344628    -1.8674784    -1.5243583
H           0.6791840    -2.9180524    -1.7231297
H          -0.4129754    -1.6128787    -2.1694736
C           5.8167802     1.6056718     0.1810569
H           6.6570085     2.2711092     0.3608669
C           4.9200939     1.8666590    -0.8540587
H           5.0595132     2.7381852    -1.4888937
C           3.8412801     1.0095685    -1.0872780
H           3.1614441     1.2301968    -1.9046152
C           3.6342015    -0.1241485    -0.2907979
C           4.5520547    -0.3769559     0.7416973
H           4.4185051    -1.2592219     1.3648004
C           5.6282989     0.4755295     0.9802715
H           6.3235525     0.2551468     1.7864749
25
349_C11H14_0-6-20-18 (-90,) energy =    -427.6069004
C           1.3209447    -0.8385713     0.6841484
H           1.1068506     0.2367906     0.7243679
H           1.5878792    -1.1471268     1.7004768
C           0.1066789    -1.6159016     0.1086499
H          -0.8044242    -1.0103566     0.1617948
H          -0.0921180    -2.5279862     0.6817534
C           2.4760397    -1.0794548    -0.3243670
H           2.8627078    -2.0936349    -0.1428143
C           1.7306679    -1.1144549    -1.6719450
H           2.3391231    -1.5222798    -2.4867238
H           1.4292633    -0.1003603    -1.9646555
C           0.4795742    -1.9581934    -1.3641766
H           0.7237196    -3.0239183    -1.4525695
H          -0.3398024    -1.7626987    -2.0639648
C           5.8147866     1.6414520     0.2152708
H           6.6520961     2.3186224     0.3617225
C           4.7863828     1.9733017    -0.6670851
H           4.8197713     2.9125017    -1.2137207
C           3.7120296     1.1021851    -0.8586747
H           2.9255283     1.3812693    -1.5538783
C           3.6399427    -0.1185017    -0.1727391
C           4.6863563    -0.4394276     0.7055179
H           4.6568946    -1.3868799     1.2402652
C           5.7604182     0.4277359     0.9029015
H           6.5575317     0.1526128     1.5890512
25
349_C11H14_0-6-20-18 (-75,) energy =    -427.6074973
C           1.2433356    -0.7377783     0.6430068
H           1.0514858     0.3409525     0.5848076
H           1.4291019    -0.9695691     1.6970992
C           0.0539642    -1.5347483     0.0424102
H          -0.8426778    -0.9088281    -0.0203832
H          -0.2093239    -2.3927164     0.6704344
C           2.4617993    -1.0806470    -0.2535536
H           2.8160420    -2.0799033     0.0398169
C           1.8168954    -1.2193544    -1.6478394
H           2.4744462    -1.7117881    -2.3726794
H           1.5746424    -0.2272984    -2.0505454
C           0.5224525    -2.0046612    -1.3666488
H           0.7409801    -3.0794524    -1.3503591
H          -0.2384700    -1.8489159    -2.1387484
C           5.8183495     1.6342279     0.1871601
H           6.6601960     2.3117165     0.3029263
C           4.6906713     2.0288741    -0.5355285
H           4.6515967     3.0175797    -0.9859929
C           3.6113578     1.1581970    -0.6869722
H           2.7424784     1.4862134    -1.2518297
C           3.6310048    -0.1251687    -0.1196359
C           4.7722073    -0.5061432     0.5996553
H           4.8114564    -1.4993393     1.0425041
C           5.8548100     0.3608461     0.7558956
H           6.7274020     0.0386189     1.3185814
25
349_C11H14_0-6-20-18 (-60,) energy =    -427.6078615
C           1.0919653    -0.6641139     0.2912126
H           0.8758627     0.3680895    -0.0148855
H           1.1433266    -0.6720381     1.3855114
C           0.0310184    -1.6268662    -0.2759408
H          -0.9711692    -1.1853038    -0.2803104
H          -0.0240730    -2.5265191     0.3487629
C           2.4076660    -1.1319756    -0.3709622
H           2.6808939    -2.0941537     0.0863078
C           1.9586975    -1.4118332    -1.8260992
H           2.6526887    -2.0755117    -2.3528837
H           1.9370172    -0.4684854    -2.3853891
C           0.5282767    -1.9989066    -1.7055124
H           0.5358723    -3.0860564    -1.8401405
H          -0.1294053    -1.5943980    -2.4822949
C           5.8062082     1.5273866     0.0762429
H           6.6588087     2.1917549     0.1893285
C           4.6467940     1.9719072    -0.5635295
H           4.5940383     2.9863951    -0.9508040
C           3.5533143     1.1190471    -0.7091711
H           2.6592088     1.4832837    -1.2097188
C           3.5899524    -0.1960539    -0.2195838
C           4.7604352    -0.6256682     0.4194584
H           4.8108386    -1.6413525     0.8064253
C           5.8589389     0.2233412     0.5680338
H           6.7548806    -0.1361601     1.0679242
25
349_C11H14_0-6-20-18 (-45,) energy =    -427.6075179
C           1.0119414    -0.5751052     0.2154087
H           0.8130203     0.4213050    -0.1991883
H           0.9816657    -0.4828381     1.3067386
C          -0.0075060    -1.5902939    -0.3365964
H          -1.0084010    -1.1586490    -0.4425672
H          -0.1004760    -2.4351819     0.3563808
C           2.3683958    -1.0991767    -0.3018848
H           2.5999573    -2.0197895     0.2533583
C           2.0225210    -1.5012397    -1.7593470
H           2.7489297    -2.2055070    -2.1788208
H           2.0502134    -0.6034288    -2.3896501
C           0.5834679    -2.0749681    -1.6945300
H           0.5916370    -3.1693177    -1.7437760
H          -0.0157672    -1.7300094    -2.5439352
C           5.8195140     1.5096197     0.0425264
H           6.6873419     2.1582857     0.1273232
C           4.6025604     2.0184363    -0.4154138
H           4.5187008     3.0673253    -0.6889242
C           3.4875689     1.1869680    -0.5215435
H           2.5509214     1.6046360    -0.8816776
C           3.5606755    -0.1711204    -0.1756352
C           4.7892237    -0.6642528     0.2854367
H           4.8674736    -1.7127336     0.5659240
C           5.9088089     0.1621972     0.3928912
H           6.8489291    -0.2471990     0.7540222
25
349_C11H14_0-6-20-18 (-30,) energy =    -427.6069089
C           0.9482430    -0.4871090     0.1182687
H           0.7706014     0.4548608    -0.4161025
H           0.8444212    -0.2787969     1.1889250
C          -0.0309450    -1.5632326    -0.3898470
H          -1.0264722    -1.1557900    -0.5951158
H          -0.1587913    -2.3383199     0.3754101
C           2.3323139    -1.0535332    -0.2528037
H           2.5168238    -1.9211817     0.3982737
C           2.0822853    -1.5917365    -1.6866449
H           2.8350606    -2.3258697    -1.9931651
H           2.1484519    -0.7538492    -2.3921889
C           0.6430652    -2.1682881    -1.6578940
H           0.6561040    -3.2623898    -1.6043554
H           0.0968805    -1.9077050    -2.5707121
C           5.8354641     1.4953746     0.0203553
H           6.7194979     2.1242145     0.0846096
C           4.5876616     2.0595658    -0.2460830
H           4.4948768     3.1332921    -0.3893688
C           3.4504959     1.2531210    -0.3250062
H           2.4899649     1.7168680    -0.5299801
C           3.5340560    -0.1343905    -0.1415361
C           4.7958693    -0.6840335     0.1323493
H           4.8825432    -1.7575598     0.2889392
C           5.9354386     0.1159264     0.2099544
H           6.8999644    -0.3375054     0.4243844
25
349_C11H14_0-6-20-18 (-15,) energy =    -427.6065746
C           0.9100628    -0.4016559     0.0157861
H           0.7808471     0.4836303    -0.6207289
H           0.7472887    -0.0863594     1.0525061
C          -0.0572034    -1.5110421    -0.4410149
H          -1.0337344    -1.1146545    -0.7382831
H          -0.2378177    -2.2083750     0.3859260
C           2.3009331    -1.0164980    -0.2206614
H           2.4316611    -1.8245115     0.5159412
C           2.1218221    -1.6817989    -1.6109711
H           2.8781771    -2.4484275    -1.8099219
H           2.2365910    -0.9119644    -2.3844376
C           0.6754054    -2.2408156    -1.6068784
H           0.6707165    -3.3247819    -1.4481962
H           0.1829924    -2.0646916    -2.5690943
C           5.8360202     1.4932309     0.0130867
H           6.7287530     2.1106685     0.0671205
C           4.5754171     2.0829824    -0.0686372
H           4.4798374     3.1659498    -0.0761970
C           3.4270219     1.2895163    -0.1352701
H           2.4565191     1.7732340    -0.1894096
C           3.5134747    -0.1087234    -0.1241030
C           4.7905041    -0.6859923    -0.0318070
H           4.8808857    -1.7703212    -0.0076327
C           5.9392373     0.1002447     0.0326499
H           6.9150177    -0.3737964     0.1036949
25
349_C11H14_0-6-20-18 (0,) energy =    -427.6063284
C           0.8844665    -0.2986612    -0.0227063
H           0.8142884     0.5324224    -0.7375771
H           0.6864937     0.1096112     0.9747843
C          -0.0990979    -1.4160763    -0.4214084
H          -1.0448359    -1.0184147    -0.8040988
H          -0.3451555    -2.0244374     0.4572050
C           2.2657066    -0.9662526    -0.1457963
H           2.3486146    -1.7042064     0.6684506
C           2.1194796    -1.7546100    -1.4736687
H           2.8582291    -2.5564696    -1.5747156
H           2.2819769    -1.0633348    -2.3101883
C           0.6603409    -2.2777976    -1.4741339
H           0.6215932    -3.3390925    -1.2049549
H           0.2122163    -2.1925402    -2.4697125
C           5.8203157     1.5238003     0.0250247
H           6.7161877     2.1376539     0.0663339
C           4.5596017     2.1087267     0.1303845
H           4.4665113     3.1845025     0.2570623
C           3.4078951     1.3185035     0.0781993
H           2.4372117     1.7959179     0.1703818
C           3.4905085    -0.0703706    -0.0840772
C           4.7692810    -0.6445735    -0.1785769
H           4.8618205    -1.7227529    -0.2903406
C           5.9205540     0.1386751    -0.1280000
H           6.8973914    -0.3323078    -0.2049952
25
349_C11H14_0-6-20-18 (15,) energy =    -427.6060051
C           0.8868007    -0.2519224    -0.1445108
H           0.8868779     0.5236419    -0.9226203
H           0.6403057     0.2371199     0.8045098
C          -0.1063995    -1.3730516    -0.5061242
H          -1.0111673    -0.9850074    -0.9855329
H          -0.4297802    -1.8898035     0.4054672
C           2.2565658    -0.9579746    -0.1301636
H           2.2794905    -1.6118809     0.7573157
C           2.1600520    -1.8713209    -1.3788741
H           2.8693290    -2.7049655    -1.3540313
H           2.3981740    -1.2755696    -2.2690626
C           0.6864043    -2.3501788    -1.4232381
H           0.5947961    -3.3801935    -1.0614126
H           0.3036705    -2.3457784    -2.4492608
C           5.8114229     1.5371574     0.0371054
H           6.7045017     2.1548252     0.0821171
C           4.5591748     2.0869674     0.3076371
H           4.4700000     3.1390879     0.5666592
C           3.4121230     1.2916286     0.2486870
H           2.4478344     1.7406488     0.4662998
C           3.4878110    -0.0675606    -0.0855100
C           4.7581902    -0.6064608    -0.3477544
H           4.8511623    -1.6598837    -0.5992992
C           5.9059403     0.1827958    -0.2898886
H           6.8758182    -0.2610481    -0.5004833
25
349_C11H14_0-6-20-18 (30,) energy =    -427.6057701
C           0.8948802    -0.1991437    -0.2727359
H           0.9656975     0.5055602    -1.1124096
H           0.6065944     0.3773221     0.6127920
C          -0.1098829    -1.3232658    -0.5897786
H          -0.9692249    -0.9594785    -1.1626864
H          -0.5073484    -1.7392293     0.3438584
C           2.2437231    -0.9337936    -0.1151519
H           2.2001761    -1.4934373     0.8343267
C           2.1883125    -1.9665214    -1.2662881
H           2.8637161    -2.8145233    -1.1121352
H           2.4979353    -1.4753810    -2.1976439
C           0.7047632    -2.4074830    -1.3539684
H           0.5589186    -3.3927744    -0.8977807
H           0.3843453    -2.4977649    -2.3972113
C           5.8062926     1.5553216     0.0361001
H           6.6981410     2.1749081     0.0791358
C           4.5807226     2.0506637     0.4821663
H           4.5117652     3.0617285     0.8758972
C           3.4363638     1.2537913     0.4239098
H           2.4933094     1.6600011     0.7776356
C           3.4844043    -0.0543824    -0.0816926
C           4.7263158    -0.5371995    -0.5227307
H           4.8012751    -1.5468425    -0.9161813
C           5.8735809     0.2553103    -0.4661301
H           6.8211952    -0.1453037    -0.8176224
25
349_C11H14_0-6-20-18 (45,) energy =    -427.6059671
C           0.9825846    -0.3396772    -0.5314176
H           1.1533616     0.3633103    -1.3564989
H           0.5862754     0.2425805     0.3066912
C           0.0190339    -1.4718103    -0.9719476
H          -0.5746152    -1.1647290    -1.8394175
H          -0.6946467    -1.7151750    -0.1771934
C           2.3201873    -1.0469653    -0.1969857
H           2.1993773    -1.5307663     0.7867373
C           2.3671025    -2.1690901    -1.2522474
H           3.0950359    -2.9542910    -1.0199936
H           2.6460208    -1.7405788    -2.2247234
C           0.9212198    -2.6991377    -1.2942337
H           0.7892940    -3.4742490    -0.5296734
H           0.6775507    -3.1616415    -2.2563912
C           5.7614581     1.5941924     0.0810639
H           6.6194244     2.2570863     0.1558594
C           4.5464785     1.9429583     0.6742988
H           4.4529862     2.8814898     1.2150709
C           3.4471194     1.0911442     0.5749566
H           2.5102658     1.3783708     1.0452264
C           3.5291969    -0.1287746    -0.1163217
C           4.7570049    -0.4639739    -0.7040504
H           4.8582763    -1.4000822    -1.2446898
C           5.8612854     0.3861028    -0.6076908
H           6.8007105     0.1005193    -1.0745110
25
349_C11H14_0-6-20-18 (60,) energy =    -427.6063130
C           1.0120626    -0.3011689    -0.6802058
H           1.2596862     0.2998634    -1.5641792
H           0.6001489     0.3852627     0.0667458
C           0.0305577    -1.4418450    -1.0542683
H          -0.5048109    -1.2103274    -1.9811253
H          -0.7321912    -1.5775564    -0.2796752
C           2.2979005    -1.0179164    -0.1920406
H           2.0942032    -1.4010259     0.8212008
C           2.3633357    -2.2331769    -1.1337221
H           3.0601906    -3.0078486    -0.7943992
H           2.6922443    -1.9088602    -2.1303860
C           0.9039093    -2.7239971    -1.1969983
H           0.7074521    -3.4088217    -0.3632769
H           0.6921254    -3.2786680    -2.1170491
C           5.7493941     1.6030891     0.0938350
H           6.6068397     2.2663453     0.1711939
C           4.5940762     1.8540917     0.8382221
H           4.5482450     2.7154654     1.4999679
C           3.4974600     1.0003953     0.7371108
H           2.6065233     1.2041687     1.3271045
C           3.5212680    -0.1220092    -0.1075328
C           4.6888933    -0.3619944    -0.8432941
H           4.7474781    -1.2257485    -1.4984248
C           5.7919640     0.4907020    -0.7449092
H           6.6862739     0.2800927    -1.3261690
25
349_C11H14_0-6-20-18 (75,) energy =    -427.6065896
C           1.0433239    -0.2808837    -0.8364436
H           1.3677160     0.2243469    -1.7549429
H           0.6143880     0.4876131    -0.1847391
C           0.0491693    -1.4251695    -1.1645877
H          -0.4146920    -1.2734484    -2.1449730
H          -0.7677901    -1.4610405    -0.4355836
C           2.2700167    -0.9837798    -0.1978989
H           1.9879875    -1.2636815     0.8293013
C           2.3539714    -2.2838750    -1.0168819
H           3.0100288    -3.0367074    -0.5658537
H           2.7427250    -2.0684669    -2.0209430
C           0.8853603    -2.7394208    -1.1191161
H           0.6174955    -3.3259273    -0.2319587
H           0.7086060    -3.3826212    -1.9875317
C           5.7308187     1.6205681     0.0963633
H           6.5883956     2.2834681     0.1753399
C           4.6518729     1.7550652     0.9733807
H           4.6653569     2.5246765     1.7411275
C           3.5572120     0.8988677     0.8702015
H           2.7247003     1.0074247     1.5627831
C           3.5060596    -0.1079204    -0.1076141
C           4.5973317    -0.2312602    -0.9774476
H           4.5991222    -1.0049535    -1.7392288
C           5.6987144     0.6229249    -0.8769829
H           6.5346606     0.5027951    -1.5616527
25
349_C11H14_0-6-20-18 (90,) energy =    -427.6069787
C           1.0798630    -0.2895864    -0.9737392
H           1.4764200     0.1217503    -1.9107653
H           0.6270274     0.5439564    -0.4265197
C           0.0855736    -1.4441276    -1.2632938
H          -0.3093895    -1.3767278    -2.2825409
H          -0.7782371    -1.3997419    -0.5909992
C           2.2433165    -0.9482277    -0.1877521
H           1.8853826    -1.1245173     0.8381581
C           2.3555424    -2.3242166    -0.8707874
H           2.9569009    -3.0383600    -0.2975171
H           2.8261920    -2.2191933    -1.8568189
C           0.8874873    -2.7621276    -1.0405571
H           0.5431802    -3.2619531    -0.1271256
H           0.7585469    -3.4780048    -1.8591320
C           5.7331801     1.6154254     0.1020138
H           6.5983785     2.2687405     0.1775483
C           4.7442812     1.6380358     1.0868951
H           4.8343362     2.3109523     1.9359926
C           3.6390849     0.7932716     0.9866984
H           2.8759511     0.8145122     1.7623367
C           3.4910025    -0.0913919    -0.0922009
C           4.4915337    -0.0988641    -1.0746839
H           4.4114673    -0.7702235    -1.9249317
C           5.6014521     0.7425609    -0.9785677
H           6.3660923     0.7131105    -1.7508878
25
349_C11H14_0-6-20-18 (105,) energy =    -427.6075615
C           1.0953769    -0.3013980    -1.0889757
H           1.5536430     0.0401333    -2.0257418
H           0.6079081     0.5696200    -0.6382903
C           0.1195799    -1.4763881    -1.3589112
H          -0.1982225    -1.4897947    -2.4069543
H          -0.7918263    -1.3791830    -0.7589715
C           2.1998853    -0.8924357    -0.1762071
H           1.7805155    -0.9766014     0.8373587
C           2.3483953    -2.3256801    -0.7281893
H           2.8948819    -2.9871324    -0.0469797
H           2.9029803    -2.3064647    -1.6752590
C           0.8944822    -2.7730391    -0.9749675
H           0.4783561    -3.2013209    -0.0551225
H           0.8229114    -3.5495352    -1.7439081
C           5.7481371     1.5890178     0.1012907
H           6.6316478     2.2178879     0.1721963
C           4.8511896     1.5109197     1.1668271
H           5.0308770     2.0806722     2.0750935
C           3.7199050     0.6988666     1.0709611
H           3.0270771     0.6430046     1.9081907
C           3.4584110    -0.0531361    -0.0825554
C           4.3671930     0.0420733    -1.1478600
H           4.1906645    -0.5212787    -2.0607070
C           5.5000999     0.8506726    -1.0577586
H           6.1912092     0.9040090    -1.8953182
25
349_C11H14_0-6-20-18 (120,) energy =    -427.6078641
C           1.1047633    -0.3152901    -1.1987199
H           1.6091098    -0.0501035    -2.1360565
H           0.5880939     0.5860156    -0.8518571
C           0.1494794    -1.5163217    -1.4219137
H          -0.1202424    -1.6129749    -2.4790211
H          -0.7888200    -1.3805334    -0.8730783
C           2.1560480    -0.8160497    -0.1778412
H           1.6842004    -0.8169835     0.8155629
C           2.3435564    -2.2904992    -0.6009351
H           2.8497870    -2.8886893     0.1646467
H           2.9619499    -2.3350934    -1.5071749
C           0.9116905    -2.7730473    -0.9030654
H           0.4436713    -3.1440520     0.0166645
H           0.8952594    -3.6006650    -1.6201167
C           5.7796900     1.5523268     0.1084393
H           6.6872339     2.1456768     0.1821020
C           4.9570431     1.3802112     1.2214241
H           5.2201032     1.8399303     2.1707764
C           3.7924823     0.6164524     1.1201263
H           3.1570326     0.4874534     1.9939035
C           3.4231136     0.0102078    -0.0876813
C           4.2618126     0.1932694    -1.1984582
H           4.0036993    -0.2642525    -2.1506569
C           5.4261945     0.9543906    -1.1034628
H           6.0596003     1.0812005    -1.9779124
25
349_C11H14_0-6-20-18 (135,) energy =    -427.6075810
C           1.2105596    -0.5102361    -1.3110892
H           1.7465012    -0.4835167    -2.2686166
H           0.7157101     0.4597617    -1.1900125
C           0.2328656    -1.6997980    -1.2849721
H          -0.2601616    -1.8574061    -2.2500949
H          -0.5607671    -1.5078948    -0.5526049
C           2.1967496    -0.8258191    -0.1662430
H           1.6534178    -0.6950423     0.7808992
C           2.4443462    -2.3445125    -0.3634016
H           2.8233642    -2.8233720     0.5457616
H           3.2109417    -2.4805486    -1.1364094
C           1.0859164    -2.9243459    -0.8387173
H           0.5846068    -3.4740445    -0.0347104
H           1.2302893    -3.6359058    -1.6587918
C           5.8465583     1.5057834     0.0970137
H           6.7639116     2.0840029     0.1691920
C           5.0725389     1.2673544     1.2327903
H           5.3839425     1.6584505     2.1981522
C           3.8936182     0.5266483     1.1331396
H           3.2953423     0.3475878     2.0242594
C           3.4589638     0.0103655    -0.0953208
C           4.2525971     0.2540178    -1.2269580
H           3.9494609    -0.1381191    -2.1944890
C           5.4309115     0.9945396    -1.1342150
H           6.0258995     1.1729288    -2.0264889
25
349_C11H14_0-6-20-18 (150,) energy =    -427.6069924
C           1.2836340    -0.6401988    -1.4393993
H           1.8725362    -0.7227148    -2.3617903
H           0.7888036     0.3372740    -1.4553367
C           0.2981071    -1.8203792    -1.3458182
H          -0.1387141    -2.0774666    -2.3165780
H          -0.5355703    -1.5533525    -0.6850439
C           2.1943599    -0.8339433    -0.2112480
H           1.5899641    -0.6170377     0.6821373
C           2.4511899    -2.3644232    -0.2420354
H           2.7825457    -2.7501622     0.7280097
H           3.2566188    -2.5701735    -0.9582282
C           1.1174711    -2.9916282    -0.7260360
H           0.5700161    -3.4508321     0.1042787
H           1.3009573    -3.7873694    -1.4558803
C           5.8685504     1.4507249     0.1337998
H           6.7934506     2.0130910     0.2307816
C           5.1528731     1.0690881     1.2697424
H           5.5175408     1.3320080     2.2595821
C           3.9638744     0.3521924     1.1375980
H           3.4111665     0.0635725     2.0296074
C           3.4593006    -0.0016430    -0.1229485
C           4.1926592     0.3861444    -1.2536122
H           3.8349732     0.1303326    -2.2469068
C           5.3821597     1.1060489    -1.1278458
H           5.9286287     1.3997753    -2.0206444
25
349_C11H14_0-6-20-18 (165,) energy =    -427.6065938
C           1.3204849    -0.6346258    -1.5432582
H           1.9582502    -0.8242594    -2.4165857
H           0.8616377     0.3510261    -1.6801847
C           0.2893504    -1.7705570    -1.4013216
H          -0.0992893    -2.1034495    -2.3694411
H          -0.5710218    -1.4183205    -0.8194857
C           2.1530653    -0.7419706    -0.2530888
H           1.5051592    -0.4318603     0.5814919
C           2.3594916    -2.2757807    -0.1338463
H           2.6267075    -2.5839773     0.8825219
H           3.1923116    -2.5688172    -0.7853062
C           1.0307687    -2.9032930    -0.6302395
H           0.4243245    -3.2635658     0.2079169
H           1.2223102    -3.7702713    -1.2713831
C           5.8699438     1.4702615     0.1169258
H           6.8044155     2.0152418     0.2212250
C           5.2413539     0.9250941     1.2389253
H           5.6849115     1.0444259     2.2242767
C           4.0408212     0.2312908     1.0989869
H           3.5551020    -0.1837686     1.9800722
C           3.4383011     0.0594256    -0.1578386
C           4.0797534     0.6148184    -1.2727420
H           3.6388756     0.5129852    -2.2597032
C           5.2823945     1.3133975    -1.1376519
H           5.7573540     1.7383977    -2.0184442
25
349_C11H14_0-6-20-18 (180,) energy =    -427.6063215
C           1.4085784    -0.6935738    -1.6443500
H           2.1099529    -0.9675431    -2.4441991
H           0.9869184     0.2853583    -1.8989551
C           0.3363645    -1.7889729    -1.4907091
H           0.0175004    -2.1967990    -2.4556207
H          -0.5574031    -1.3674313    -1.0150144
C           2.1411747    -0.7096696    -0.2909497
H           1.4457373    -0.3088809     0.4641070
C           2.2871222    -2.2316330    -0.0263211
H           2.4671274    -2.4624829     1.0287621
H           3.1545669    -2.6023979    -0.5865521
C           0.9782571    -2.8650280    -0.5654087
H           0.2986373    -3.1277005     0.2526983
H           1.1865655    -3.7936110    -1.1073163
C           5.8738996     1.4769201     0.0973653
H           6.8096965     2.0190841     0.2044273
C           5.3399288     0.7705513     1.1780301
H           5.8589885     0.7608567     2.1332543
C           4.1390088     0.0782272     1.0363961
H           3.7311632    -0.4626645     1.8876096
C           3.4407775     0.0686596    -0.1827436
C           3.9871978     0.7859226    -1.2547392
H           3.4702478     0.8103999    -2.2091164
C           5.1910517     1.4826963    -1.1176781
H           5.5919660     2.0324870    -1.9656115
