29
423_C14H13NO_11-12-23-24 (-165,) energy =    -671.2934051
C           0.2726724     0.8533636    -0.9968012
N           0.5619443     1.4455963    -2.2003223
C          -0.3880269     2.2531090    -2.9335974
H          -0.6550047     3.1584437    -2.3742292
H          -1.3188891     1.7145820    -3.1734956
H           0.0778840     2.5660956    -3.8711246
H           1.2780638     0.9662552    -2.7312476
C          -0.9488440     1.1067790    -0.3331165
H          -1.6677236     1.7824629    -0.7827872
C          -1.2646230     0.4740801     0.8625008
H          -2.2244407     0.6785774     1.3305282
C           1.2207913    -0.0085260    -0.3540553
C           2.5421063    -0.2673364    -0.9932798
C          -0.3816962    -0.4384582     1.4457530
H          -0.6466435    -0.9672971     2.3558960
C           6.3306901     0.0333768     1.0591764
H           7.2958501     0.1349478     1.5484797
C           5.1596813     0.0103087     1.8168844
H           5.2080712     0.1034124     2.8984427
C           0.8470969    -0.6596731     0.8332567
H           1.5259657    -1.3897382     1.2623745
C           3.9178519    -0.1082255     1.1924935
H           3.0238181    -0.0646010     1.8004001
C           3.8281000    -0.2448525    -0.2037590
C           5.0160357    -0.1771404    -0.9555897
H           4.9389781    -0.2388805    -2.0353262
C           6.2533057    -0.0501388    -0.3335971
H           7.1579870    -0.0061209    -0.9340842
O           2.6217894    -0.3516942    -2.2242856
29
423_C14H13NO_11-12-23-24 (-150,) energy =    -671.2899478
C           0.5681089     0.5693488    -0.5576547
N           1.3697452     1.4328350    -1.2709134
C           0.8815544     2.6182642    -1.9417112
H           0.4992425     3.3590225    -1.2270813
H           0.0805955     2.3969564    -2.6633491
H           1.7137476     3.0758043    -2.4818478
H           2.2810544     1.1022626    -1.5423174
C          -0.7802278     0.9093756    -0.3041890
H          -1.1660117     1.8593161    -0.6566895
C          -1.6258318     0.0446304     0.3792642
H          -2.6549415     0.3466505     0.5581287
C           1.0431639    -0.6889547    -0.0773162
C           2.4275894    -1.2242014    -0.2694457
C          -1.1735094    -1.2018786     0.8214117
H          -1.8380092    -1.8820140     1.3451108
C           5.9666564     1.2032826     0.0657933
H           6.8726825     1.7966309     0.1570880
C           4.8469396     1.5137849     0.8412480
H           4.8833650     2.3431432     1.5423702
C           0.1461715    -1.5536686     0.5725447
H           0.5298236    -2.5189929     0.8874557
C           3.6794427     0.7614608     0.7159231
H           2.8055904     1.0044768     1.3130643
C           3.6318942    -0.3266161    -0.1691642
C           4.7667483    -0.6420172    -0.9322978
H           4.7249396    -1.5015558    -1.5940469
C           5.9233519     0.1273102    -0.8253610
H           6.7944145    -0.1165467    -1.4275282
O           2.6059352    -2.4218186    -0.4720861
29
423_C14H13NO_11-12-23-24 (-135,) energy =    -671.2887631
C           0.5956007     0.5392564    -0.5383343
N           1.4343568     1.3991792    -1.2070077
C           0.9920196     2.5909929    -1.8972987
H           0.5607771     3.3258820    -1.2044840
H           0.2429156     2.3752589    -2.6738479
H           1.8588207     3.0525770    -2.3759780
H           2.3748947     1.0898878    -1.3878786
C          -0.7708527     0.8742730    -0.3879787
H          -1.1340696     1.8165443    -0.7821729
C          -1.6601171     0.0171600     0.2454598
H          -2.7007516     0.3169529     0.3433063
C           1.0398174    -0.7110585    -0.0041688
C           2.4324009    -1.2464270    -0.0727629
C          -1.2358394    -1.2192237     0.7433336
H          -1.9337548    -1.8928371     1.2307342
C           5.9225902     1.2762542    -0.0519565
H           6.8134543     1.8986193    -0.0425137
C           4.8969178     1.5115486     0.8672479
H           4.9917130     2.3120490     1.5959601
C           0.0990064    -1.5661060     0.5992365
H           0.4657514    -2.5209499     0.9620206
C           3.7458094     0.7245266     0.8470215
H           2.9374240     0.9155446     1.5474021
C           3.6287858    -0.3293527    -0.0712944
C           4.6663643    -0.5667804    -0.9848258
H           4.5746660    -1.3965835    -1.6792864
C           5.8029024     0.2413617    -0.9831240
H           6.5991491     0.0577015    -1.6994664
O           2.6368261    -2.4562492    -0.1172182
29
423_C14H13NO_11-12-23-24 (-120,) energy =    -671.2869513
C           0.6093088     0.5170279    -0.5244290
N           1.4744556     1.3907649    -1.1352460
C           1.0619598     2.5801506    -1.8479104
H           0.5686608     3.3026687    -1.1840176
H           0.3754261     2.3570849    -2.6781547
H           1.9531550     3.0591649    -2.2599742
H           2.4352926     1.1086509    -1.2357514
C          -0.7719401     0.8274518    -0.4835709
H          -1.1201470     1.7575315    -0.9178508
C          -1.6921710    -0.0351980     0.0930427
H          -2.7423614     0.2465969     0.1051673
C           1.0336769    -0.7196230     0.0605189
C           2.4313749    -1.2357523     0.1231614
C          -1.2855530    -1.2550131     0.6457741
H          -2.0066881    -1.9327331     1.0919599
C           5.8942693     1.3169901    -0.1660796
H           6.7761773     1.9481000    -0.2354072
C           4.9838673     1.4990499     0.8779593
H           5.1585083     2.2691410     1.6245313
C           0.0611746    -1.5773888     0.6118068
H           0.4177354    -2.5160925     1.0229059
C           3.8437379     0.6995902     0.9601379
H           3.1231938     0.8545738     1.7587574
C           3.6243198    -0.3144816     0.0170773
C           4.5438894    -0.4972612    -1.0254611
H           4.3776924    -1.2933983    -1.7456546
C           5.6692969     0.3228649    -1.1211627
H           6.3751213     0.1787639    -1.9347919
O           2.6576244    -2.4343799     0.2635798
29
423_C14H13NO_11-12-23-24 (-105,) energy =    -671.2852809
C           0.6145779     0.5272027    -0.5154981
N           1.4970229     1.4365957    -1.0404880
C           1.1082327     2.6199357    -1.7765006
H           0.5294838     3.3157949    -1.1544032
H           0.5103849     2.3833272    -2.6690680
H           2.0157993     3.1348867    -2.0999242
H           2.4743047     1.1965647    -1.0463390
C          -0.7755459     0.7877166    -0.6090045
H          -1.1125609     1.7006730    -1.0860147
C          -1.7162210    -0.0984942    -0.1086610
H          -2.7717857     0.1457529    -0.2016860
C           1.0247197    -0.6899593     0.1223853
C           2.4221226    -1.1609844     0.3341363
C          -1.3219389    -1.2941471     0.5042275
H          -2.0584938    -1.9898689     0.8939712
C           5.9248385     1.2872435    -0.2777514
H           6.8180477     1.8885068    -0.4237695
C           5.1384775     1.4668774     0.8626518
H           5.4200177     2.2063092     1.6076160
C           0.0309997    -1.5677376     0.6037698
H           0.3801743    -2.4836660     1.0685215
C           3.9867156     0.7013201     1.0483302
H           3.3685352     0.8504457     1.9296516
C           3.6233808    -0.2675684     0.1026522
C           4.4178080    -0.4472652    -1.0385414
H           4.1445471    -1.2056997    -1.7672402
C           5.5607577     0.3320375    -1.2291305
H           6.1705855     0.1862421    -2.1167609
O           2.6577505    -2.3067477     0.7078137
29
423_C14H13NO_11-12-23-24 (-90,) energy =    -671.2847632
C           0.5888932     0.5344902    -0.4806959
N           1.4548188     1.5182463    -0.8840169
C           1.0672072     2.6842321    -1.6480444
H           0.3646599     3.3201723    -1.0929886
H           0.6026289     2.4226369    -2.6102191
H           1.9644797     3.2732558    -1.8515351
H           2.4414106     1.3507358    -0.7767157
C          -0.7965957     0.6955082    -0.7345945
H          -1.1401292     1.5821216    -1.2546436
C          -1.7242350    -0.2517817    -0.3323248
H          -2.7764355    -0.0843641    -0.5500050
C           1.0086965    -0.6523424     0.2071403
C           2.4018429    -1.0287138     0.5731791
C          -1.3208312    -1.4104297     0.3431390
H          -2.0471848    -2.1531748     0.6580896
C           5.9649111     1.2007328    -0.4180353
H           6.8786794     1.7394167    -0.6535213
C           5.3098843     1.4296065     0.7940801
H           5.7143586     2.1440832     1.5060748
C           0.0273022    -1.5874422     0.5985518
H           0.3837417    -2.4704294     1.1181971
C           4.1379768     0.7363541     1.1003953
H           3.6343603     0.9077019     2.0479608
C           3.6058133    -0.1890026     0.1912087
C           4.2704960    -0.4187776    -1.0218511
H           3.8699061    -1.1442826    -1.7251177
C           5.4440237     0.2747897    -1.3240545
H           5.9538019     0.0862878    -2.2651316
O           2.6404920    -2.0520685     1.2084989
29
423_C14H13NO_11-12-23-24 (-75,) energy =    -671.2857933
C           0.5670186     0.5731979    -0.4479725
N           1.3968941     1.6239056    -0.7487698
C           1.0121935     2.7573493    -1.5617408
H           0.2014979     3.3332451    -1.0962444
H           0.6858794     2.4640678    -2.5707880
H           1.8775643     3.4167204    -1.6612419
H           2.3791096     1.5150776    -0.5561076
C          -0.7929341     0.6343930    -0.8409225
H          -1.1439547     1.4908754    -1.4047770
C          -1.6885750    -0.3720322    -0.5143434
H          -2.7223982    -0.2826448    -0.8395043
C           0.9979223    -0.5778944     0.2897254
C           2.3755288    -0.8484378     0.7854974
C          -1.2774286    -1.4889105     0.2231437
H          -1.9794880    -2.2759667     0.4801978
C           5.9812500     1.1083706    -0.5497726
H           6.9090361     1.5742633    -0.8705419
C           5.4641572     1.3781035     0.7196147
H           5.9910867     2.0511322     1.3906599
C           0.0484880    -1.5689104     0.6129880
H           0.4093193    -2.4166874     1.1858609
C           4.2797247     0.7706934     1.1377844
H           3.8913920     0.9545965     2.1356241
C           3.5830798    -0.0884307     0.2756351
C           4.1113320    -0.3617930    -0.9944935
H           3.5845647    -1.0402242    -1.6607951
C           5.3064654     0.2327445    -1.4027752
H           5.7119455     0.0081494    -2.3856831
O           2.5904929    -1.7099041     1.6331741
29
423_C14H13NO_11-12-23-24 (-60,) energy =    -671.2876584
C           0.5625082     0.6090154    -0.4335302
N           1.3499208     1.7190719    -0.6395294
C           0.9930245     2.7984904    -1.5368089
H           0.0996647     3.3300108    -1.1858405
H           0.8042826     2.4567963    -2.5662487
H           1.8189464     3.5134021    -1.5582977
H           2.3303418     1.6276693    -0.4252541
C          -0.7599203     0.5884117    -0.9370750
H          -1.1155368     1.4234624    -1.5296197
C          -1.6180853    -0.4707083    -0.6773061
H          -2.6251937    -0.4453979    -1.0865718
C           1.0010288    -0.5156897     0.3356807
C           2.3534344    -0.6943298     0.9373799
C          -1.2037702    -1.5570954     0.1009578
H          -1.8764492    -2.3836053     0.3079412
C           5.9975230     1.0112237    -0.6054040
H           6.9351458     1.4131036    -0.9798908
C           5.6065564     1.2595094     0.7131151
H           6.2412251     1.8519089     1.3666461
C           0.0899170    -1.5568005     0.5979332
H           0.4504823    -2.3794016     1.2069572
C           4.4118663     0.7303185     1.1997593
H           4.1201478     0.8849221     2.2343554
C           3.5740577    -0.0164412     0.3584870
C           3.9765221    -0.2691300    -0.9616329
H           3.3390499    -0.8653252    -1.6095733
C           5.1858405     0.2388085    -1.4387575
H           5.4952385     0.0281493    -2.4589485
O           2.5215211    -1.4111954     1.9190768
29
423_C14H13NO_11-12-23-24 (-45,) energy =    -671.2894395
C           0.5481813     0.6346058    -0.4334491
N           1.2888754     1.7850173    -0.5975270
C           0.9388152     2.8335680    -1.5331785
H          -0.0005467     3.3237930    -1.2483866
H           0.8337243     2.4699350    -2.5671744
H           1.7279024     3.5890002    -1.5135869
H           2.2578626     1.7428543    -0.3238529
C          -0.7367182     0.5373990    -1.0156224
H          -1.1012063     1.3445679    -1.6407985
C          -1.5513353    -0.5640882    -0.7882784
H          -2.5315592    -0.5995970    -1.2575535
C           0.9994571    -0.4546164     0.3749576
C           2.3251729    -0.5390781     1.0576847
C          -1.1290300    -1.6127837     0.0347218
H          -1.7697206    -2.4697048     0.2181309
C           6.0068339     0.9084647    -0.6414610
H           6.9525391     1.2475299    -1.0558444
C           5.7240269     1.1110328     0.7124916
H           6.4499449     1.6058512     1.3519979
C           0.1312259    -1.5356487     0.6097479
H           0.4941313    -2.3275995     1.2572368
C           4.5189191     0.6616058     1.2485030
H           4.3018520     0.7757552     2.3061178
C           3.5653226     0.0422590     0.4264914
C           3.8584941    -0.1632384    -0.9308362
H           3.1318574    -0.6641120    -1.5650945
C           5.0773458     0.2628822    -1.4597567
H           5.3026577     0.0873903    -2.5082095
O           2.4430299    -1.1158966     2.1342789
29
423_C14H13NO_11-12-23-24 (-30,) energy =    -671.2903245
C           0.5359642     0.6602804    -0.4316802
N           1.2268534     1.8481450    -0.5698351
C           0.8793039     2.8553586    -1.5515194
H          -0.0998965     3.2985793    -1.3328799
H           0.8547433     2.4657262    -2.5815015
H           1.6233565     3.6540569    -1.5033906
H           2.1916475     1.8402629    -0.2770680
C          -0.7148180     0.4896809    -1.0652071
H          -1.0952668     1.2695032    -1.7152755
C          -1.4794217    -0.6518512    -0.8548217
H          -2.4360800    -0.7456270    -1.3629704
C           1.0102524    -0.3932364     0.4064502
C           2.3120479    -0.3850466     1.1456957
C          -1.0376619    -1.6643370     0.0009451
H          -1.6401657    -2.5509012     0.1725640
C           6.0321975     0.8141350    -0.6609130
H           6.9840827     1.0968780    -1.1026433
C           5.8335115     0.9473388     0.7167245
H           6.6303853     1.3335879     1.3464541
C           0.1926283    -1.5131276     0.6278863
H           0.5657216    -2.2760942     1.3040846
C           4.6185537     0.5731066     1.2849390
H           4.4553777     0.6401731     2.3558729
C           3.5768298     0.0887496     0.4783203
C           3.7846924    -0.0442346    -0.9040022
H           2.9909909    -0.4434611    -1.5292136
C           5.0100661     0.3111547    -1.4686422
H           5.1683354     0.1907274    -2.5369156
O           2.3803897    -0.8247533     2.2888655
29
423_C14H13NO_11-12-23-24 (-15,) energy =    -671.2928393
C           0.2629526     0.9099085    -0.9975089
N           0.5292295     1.9780409    -1.8192612
C          -0.4161244     2.4764799    -2.7944254
H          -1.3811735     2.7708254    -2.3513084
H          -0.6145497     1.7286042    -3.5721489
H           0.0199825     3.3532441    -3.2793596
H           1.1834855     2.6424065    -1.4260053
C          -0.9121277     0.1422406    -1.1556441
H          -1.6148273     0.4009648    -1.9397334
C          -1.2060684    -0.9115832    -0.2990544
H          -2.1318910    -1.4639381    -0.4399352
C           1.1933526     0.5141510     0.0183860
C           2.4720644     1.2667467     0.1815192
C          -0.3465367    -1.2415991     0.7511680
H          -0.5969878    -2.0344215     1.4490026
C           6.3736786    -0.5134940     0.6948951
H           7.3671515    -0.9325771     0.8314620
C           6.2175751     0.8432000     0.3972607
H           7.0896600     1.4846421     0.3024217
C           0.8406212    -0.5293780     0.8891884
H           1.4972275    -0.7578740     1.7223107
C           4.9446328     1.3771800     0.2301339
H           4.8057003     2.4318238     0.0207612
C           3.7990170     0.5657055     0.3307836
C           3.9705161    -0.7961251     0.6315405
H           3.1178519    -1.4606047     0.6796852
C           5.2475821    -1.3285279     0.8105174
H           5.3601339    -2.3856567     1.0352984
O           2.4798541     2.4942498     0.0378426
29
423_C14H13NO_11-12-23-24 (0,) energy =    -671.2961613
C           0.2448160     0.9305137    -1.0236918
N           0.4609651     1.9811979    -1.8744344
C          -0.5198054     2.4547794    -2.8251644
H          -1.4620515     2.7708084    -2.3498839
H          -0.7578622     1.6850515    -3.5702509
H          -0.0992702     3.3130955    -3.3546093
H           1.1775413     2.6254182    -1.5636436
C          -0.9443473     0.1687157    -1.0951895
H          -1.6918783     0.4201949    -1.8391510
C          -1.1919025    -0.8658835    -0.2033225
H          -2.1286713    -1.4130247    -0.2764512
C           1.2352988     0.5449066    -0.0589083
C           2.5247543     1.2825424     0.0216977
C          -0.2708781    -1.1858093     0.7986820
H          -0.4842590    -1.9645047     1.5241574
C           6.3631599    -0.5384520     0.8000180
H           7.3397405    -0.9708413     1.0016290
C           6.2277991     0.8417053     0.6241069
H           7.0992704     1.4875534     0.6905142
C           0.9264757    -0.4821417     0.8507566
H           1.6346244    -0.7045357     1.6420791
C           4.9764794     1.3916329     0.3684496
H           4.8524656     2.4609495     0.2383189
C           3.8332735     0.5769374     0.2722440
C           3.9830556    -0.8086154     0.4523388
H           3.1335394    -1.4706037     0.3408496
C           5.2391147    -1.3593820     0.7088866
H           5.3374787    -2.4345690     0.8317053
O           2.5648010     2.4913438    -0.2431012
29
423_C14H13NO_11-12-23-24 (15,) energy =    -671.2989702
C           0.2187545     0.9424113    -1.0477245
N           0.3906712     1.9781823    -1.9196567
C          -0.6227780     2.4371554    -2.8416410
H          -1.5384933     2.7777837    -2.3337077
H          -0.9035927     1.6517431    -3.5554469
H          -0.2158582     3.2766978    -3.4101907
H           1.1729711     2.5846373    -1.7023687
C          -0.9854955     0.1985149    -1.0329320
H          -1.7752863     0.4531115    -1.7307620
C          -1.1892539    -0.8207515    -0.1149110
H          -2.1366781    -1.3543552    -0.1205178
C           1.2646995     0.5548029    -0.1406730
C           2.5645426     1.2675908    -0.1461268
C          -0.2085729    -1.1462725     0.8291545
H          -0.3862456    -1.9156236     1.5739176
C           6.3370539    -0.5493824     0.9022666
H           7.2974549    -0.9841081     1.1667416
C           6.1906737     0.8389053     0.8283691
H           7.0370241     1.4877487     1.0374033
C           0.9983557    -0.4612247     0.7976237
H           1.7547763    -0.6903406     1.5404338
C           4.9612588     1.3924267     0.4865303
H           4.8324812     2.4672289     0.4190356
C           3.8507845     0.5728438     0.2175635
C           4.0101592    -0.8206662     0.2949147
H           3.1848475    -1.4779602     0.0476921
C           5.2468904    -1.3751920     0.6270878
H           5.3573419    -2.4555448     0.6657332
O           2.6425137     2.4413912    -0.5385911
29
423_C14H13NO_11-12-23-24 (30,) energy =    -671.3007498
C           0.2139309     0.9423853    -1.0581945
N           0.3623283     1.9596776    -1.9514169
C          -0.6805058     2.4280603    -2.8346418
H          -1.5605829     2.8011479    -2.2890172
H          -1.0166408     1.6391483    -3.5208062
H          -0.2798415     3.2478630    -3.4353621
H           1.2062005     2.5096039    -1.8301099
C          -1.0107946     0.2373640    -0.9580536
H          -1.8335825     0.5082565    -1.6101069
C          -1.1859974    -0.7663157    -0.0188188
H          -2.1469628    -1.2717967     0.0403707
C           1.3017805     0.5377177    -0.2069431
C           2.6166825     1.2070268    -0.2960060
C          -0.1560802    -1.1165154     0.8637571
H          -0.3083054    -1.8780407     1.6220498
C           6.3179557    -0.5771546     1.0129123
H           7.2626566    -1.0070603     1.3353607
C           6.1367511     0.8088826     1.0254326
H           6.9403384     1.4599856     1.3590351
C           1.0643596    -0.4672871     0.7532101
H           1.8603514    -0.7183533     1.4453575
C           4.9292532     1.3577833     0.6044804
H           4.7810012     2.4324890     0.5897644
C           3.8733023     0.5317804     0.1848784
C           4.0668400    -0.8586552     0.1715157
H           3.2802713    -1.5118291    -0.1907428
C           5.2849361    -1.4069023     0.5756038
H           5.4263109    -2.4839013     0.5443653
O           2.7405726     2.3306009    -0.8090470
29
423_C14H13NO_11-12-23-24 (45,) energy =    -671.3011846
C           0.2224746     0.9620590    -1.0901335
N           0.3658671     1.9522852    -2.0115392
C          -0.6985589     2.4478098    -2.8531140
H          -1.5309071     2.8714845    -2.2715550
H          -1.1053151     1.6614180    -3.5035391
H          -0.2934674     3.2366977    -3.4910029
H           1.2616839     2.4297503    -1.9861949
C          -1.0265380     0.3187112    -0.9035244
H          -1.8734490     0.6162237    -1.5116221
C          -1.1887187    -0.6644701     0.0585441
H          -2.1658049    -1.1256225     0.1817495
C           1.3377188     0.5284426    -0.2885964
C           2.6706818     1.1360584    -0.4575918
C          -0.1225495    -1.0552471     0.8802670
H          -0.2619776    -1.8066193     1.6510125
C           6.3023288    -0.5811011     1.0990639
H           7.2332858    -0.9960747     1.4762520
C           6.0605389     0.7926065     1.1890830
H           6.8028632     1.4483474     1.6362409
C           1.1151347    -0.4605332     0.6928686
H           1.9413906    -0.7456741     1.3342216
C           4.8730453     1.3256404     0.6945995
H           4.6873455     2.3944390     0.7310011
C           3.8945753     0.4895637     0.1355186
C           4.1490889    -0.8868213     0.0402628
H           3.4167961    -1.5397978    -0.4246203
C           5.3500159    -1.4169269     0.5141981
H           5.5417525    -2.4826900     0.4228300
O           2.8427582     2.1930474    -1.0857450
29
423_C14H13NO_11-12-23-24 (60,) energy =    -671.3002781
C           0.2130371     0.9698189    -1.1020220
N           0.3497295     1.9327603    -2.0511293
C          -0.7323070     2.4520902    -2.8551373
H          -1.5188731     2.9175382    -2.2436179
H          -1.1993476     1.6709780    -3.4712729
H          -0.3278496     3.2144779    -3.5247773
H           1.2837940     2.3249216    -2.1293600
C          -1.0524558     0.3928541    -0.8278853
H          -1.9190976     0.7200990    -1.3913335
C          -1.2007269    -0.5700191     0.1562735
H          -2.1886866    -0.9838439     0.3440766
C           1.3506146     0.5035596    -0.3513734
C           2.6958608     1.0436425    -0.6016939
C          -0.1048531    -1.0063578     0.9149308
H          -0.2317433    -1.7487031     1.6964828
C           6.2823159    -0.5608275     1.1658365
H           7.2039672    -0.9485649     1.5915979
C           5.9424234     0.7835661     1.3379283
H           6.5996880     1.4446493     1.8965148
C           1.1443229    -0.4697165     0.6498964
H           1.9967469    -0.7927507     1.2369774
C           4.7674653     1.2839256     0.7807146
H           4.5143507     2.3350681     0.8817839
C           3.8977911     0.4375066     0.0787950
C           4.2509332    -0.9071866    -0.1007799
H           3.5977884    -1.5638593    -0.6689090
C           5.4399917    -1.4019469     0.4373021
H           5.7085087    -2.4438359     0.2843792
O           2.9026186     2.0210841    -1.3380574
29
423_C14H13NO_11-12-23-24 (75,) energy =    -671.2987261
C           0.2128057     0.9661852    -1.1107468
N           0.3459085     1.8808347    -2.1066042
C          -0.7516646     2.4284923    -2.8699735
H          -1.4728929     2.9637903    -2.2356463
H          -1.2974075     1.6508895    -3.4225551
H          -0.3461116     3.1373235    -3.5954218
H           1.2953452     2.2087098    -2.2610471
C          -1.0610670     0.4602973    -0.7489532
H          -1.9415459     0.8074096    -1.2780465
C          -1.1976404    -0.4646353     0.2726816
H          -2.1912810    -0.8275831     0.5248008
C           1.3645259     0.4816427    -0.3949947
C           2.7161936     0.9548900    -0.7195769
C          -0.0826925    -0.9317696     0.9845891
H          -0.2001951    -1.6504399     1.7893547
C           6.2637229    -0.5521514     1.2115162
H           7.1750354    -0.9155350     1.6788756
C           5.7966100     0.7336587     1.4935130
H           6.3445785     1.3742340     2.1794519
C           1.1719957    -0.4565631     0.6417483
H           2.0428206    -0.8051044     1.1864238
C           4.6328378     1.2046478     0.8866365
H           4.2820128     2.2136234     1.0847176
C           3.9079492     0.3825365     0.0145982
C           4.3859910    -0.9022947    -0.2726766
H           3.8380245    -1.5382934    -0.9631232
C           5.5602413    -1.3663684     0.3224982
H           5.9256063    -2.3629962     0.0893181
O           2.9434408     1.8456035    -1.5516855
29
423_C14H13NO_11-12-23-24 (90,) energy =    -671.2977907
C           0.2175531     0.9773507    -1.1144924
N           0.3434086     1.8308714    -2.1638805
C          -0.7639338     2.3827170    -2.9100304
H          -1.4315501     2.9851214    -2.2773755
H          -1.3671656     1.6002959    -3.3915755
H          -0.3625242     3.0301388    -3.6929022
H           1.2988723     2.0950422    -2.3878826
C          -1.0577067     0.5413740    -0.6747389
H          -1.9465032     0.8975282    -1.1835456
C          -1.1840989    -0.3304991     0.3937788
H          -2.1786396    -0.6431175     0.7032838
C           1.3791241     0.4886076    -0.4181873
C           2.7320016     0.8975132    -0.8124625
C          -0.0575286    -0.8115870     1.0780280
H          -0.1668472    -1.4938803     1.9149484
C           6.2340475    -0.5643971     1.2409491
H           7.1292467    -0.9202019     1.7438683
C           5.6249908     0.6229228     1.6517025
H           6.0454724     1.1952753     2.4743780
C           1.1975828    -0.3979462     0.6649387
H           2.0787971    -0.7595641     1.1840841
C           4.4762563     1.0814366     1.0055681
H           4.0073141     2.0094690     1.3219504
C           3.9243469     0.3519972    -0.0542023
C           4.5401281    -0.8361822    -0.4651314
H           4.1196407    -1.4022934    -1.2922357
C           5.6902922    -1.2919859     0.1807416
H           6.1620768    -2.2149281    -0.1460340
O           2.9642035     1.6826005    -1.7428018
29
423_C14H13NO_11-12-23-24 (105,) energy =    -671.2983479
C           0.2247367     0.9597731    -1.1105647
N           0.3443785     1.7541854    -2.2061480
C          -0.7675416     2.2929163    -2.9549436
H          -1.4037776     2.9434407    -2.3383774
H          -1.4021213     1.5028508    -3.3814265
H          -0.3702011     2.8902350    -3.7786673
H           1.3003083     1.9368305    -2.4989081
C          -1.0499630     0.5933273    -0.6098910
H          -1.9418446     0.9565245    -1.1081844
C          -1.1722269    -0.2241591     0.5011327
H          -2.1665465    -0.4867158     0.8547085
C           1.3913024     0.4677354    -0.4242398
C           2.7433855     0.8134021    -0.8811431
C          -0.0413127    -0.7177362     1.1687528
H          -0.1467766    -1.3633573     2.0347743
C           6.2311204    -0.5806068     1.2403939
H           7.1192304    -0.9256197     1.7630364
C           5.4768064     0.4720525     1.7616863
H           5.7769488     0.9510504     2.6899326
C           1.2135574    -0.3660526     0.7008204
H           2.0968031    -0.7426376     1.2051194
C           4.3317883     0.9106861     1.0947146
H           3.7408920     1.7250196     1.5059948
C           3.9433358     0.3106507    -0.1093552
C           4.7042627    -0.7434677    -0.6292226
H           4.4077102    -1.2069883    -1.5661639
C           5.8409028    -1.1892121     0.0455306
H           6.4236180    -2.0103238    -0.3635675
O           2.9666710     1.4787703    -1.9032932
29
423_C14H13NO_11-12-23-24 (120,) energy =    -671.2997861
C           0.2271361     0.9608528    -1.0902129
N           0.3533265     1.7036132    -2.2212120
C          -0.7530141     2.2595352    -2.9655353
H          -1.3420618     2.9640543    -2.3619624
H          -1.4344670     1.4826732    -3.3418182
H          -0.3513613     2.8033531    -3.8235444
H           1.3040942     1.7923111    -2.5687525
C          -1.0497839     0.6815277    -0.5414203
H          -1.9350082     1.0726282    -1.0302905
C          -1.1840550    -0.0917118     0.5994628
H          -2.1803481    -0.2908588     0.9872033
C           1.3874703     0.4408590    -0.4128411
C           2.7424920     0.7072309    -0.9193651
C          -0.0620204    -0.6253996     1.2499525
H          -0.1755784    -1.2432706     2.1350217
C           6.2600950    -0.5470082     1.2334145
H           7.1569235    -0.8596437     1.7616073
C           5.3761059     0.3550779     1.8279052
H           5.5854665     0.7517378     2.8178041
C           1.1961065    -0.3513810     0.7397568
H           2.0698044    -0.7662052     1.2296841
C           4.2178126     0.7470826     1.1549579
H           3.5264226     1.4430647     1.6223181
C           3.9481231     0.2589539    -0.1305203
C           4.8451600    -0.6377011    -0.7260277
H           4.6421708    -1.0035526    -1.7283012
C           5.9900538    -1.0456077    -0.0433765
H           6.6750552    -1.7487754    -0.5096046
O           2.9580919     1.2569974    -2.0108833
29
423_C14H13NO_11-12-23-24 (135,) energy =    -671.3009865
C           0.2296763     0.9522672    -1.0819471
N           0.3740798     1.6564970    -2.2361444
C          -0.7138151     2.2679868    -2.9636815
H          -1.2344876     3.0255724    -2.3619202
H          -1.4584819     1.5316894    -3.3006789
H          -0.3019129     2.7628672    -3.8461436
H           1.3085288     1.6350807    -2.6335206
C          -1.0471722     0.7794622    -0.4913903
H          -1.9158384     1.2240971    -0.9639293
C          -1.2055150     0.0346350     0.6654765
H          -2.2025913    -0.0860491     1.0824136
C           1.3700517     0.3723466    -0.4199343
C           2.7276877     0.5416498    -0.9677678
C          -0.1080036    -0.5736030     1.2905685
H          -0.2415977    -1.1764658     2.1831734
C           6.2938029    -0.4701199     1.2278874
H           7.2060279    -0.7179831     1.7641003
C           5.2952452     0.2764543     1.8553411
H           5.4311966     0.6204515     2.8771878
C           1.1530464    -0.3938080     0.7451201
H           2.0056900    -0.8713072     1.2144357
C           4.1176236     0.5841604     1.1725572
H           3.3446245     1.1688405     1.6625433
C           3.9374066     0.1647754    -0.1535195
C           4.9565285    -0.5641255    -0.7838904
H           4.8247167    -0.8624102    -1.8193693
C           6.1208292    -0.8919123    -0.0931624
H           6.8976953    -1.4699317    -0.5864821
O           2.9348465     0.9775813    -2.1116226
29
423_C14H13NO_11-12-23-24 (150,) energy =    -671.3010750
C           0.2164944     0.9182714    -1.0576532
N           0.3746482     1.5875518    -2.2321947
C          -0.6911686     2.2575351    -2.9407288
H          -1.1380807     3.0609483    -2.3396363
H          -1.4961478     1.5693191    -3.2397166
H          -0.2738903     2.7061569    -3.8451768
H           1.2751423     1.4511208    -2.6800524
C          -1.0489184     0.8544120    -0.4231496
H          -1.8964655     1.3552700    -0.8774242
C          -1.2274623     0.1377542     0.7489933
H          -2.2173345     0.0979277     1.1973947
C           1.3319776     0.2731281    -0.4156647
C           2.6831650     0.3373605    -1.0074882
C          -0.1614325    -0.5486220     1.3456066
H          -0.3128045    -1.1357873     2.2458316
C           6.3249339    -0.3459419     1.1935028
H           7.2582866    -0.5049858     1.7271319
C           5.2365281     0.2338439     1.8462243
H           5.3228933     0.5408215     2.8850908
C           1.0930052    -0.4670529     0.7610192
H           1.9194501    -1.0099589     1.2057990
C           4.0336501     0.4293983     1.1660567
H           3.2003032     0.9021492     1.6753774
C           3.9087931     0.0531352    -0.1804962
C           5.0228725    -0.4945619    -0.8368476
H           4.9329721    -0.7454915    -1.8887395
C           6.2153429    -0.7090525    -0.1520174
H           7.0638140    -1.1505627    -0.6679192
O           2.8651134     0.6534042    -2.1942139
29
423_C14H13NO_11-12-23-24 (165,) energy =    -671.2996812
C           0.2163668     0.9036839    -1.0472962
N           0.4039841     1.5486624    -2.2338545
C          -0.6271250     2.2806301    -2.9327418
H          -1.0034923     3.1204333    -2.3338147
H          -1.4852327     1.6480177    -3.2076059
H          -0.1972124     2.6890276    -3.8503224
H           1.2526594     1.2899531    -2.7245073
C          -1.0341692     0.9511082    -0.3844814
H          -1.8477766     1.5163035    -0.8251129
C          -1.2476844     0.2563415     0.7960328
H          -2.2281423     0.3006700     1.2641701
C           1.2887097     0.1799979    -0.4192264
C           2.6304873     0.1300644    -1.0423230
C          -0.2319645    -0.5167336     1.3716065
H          -0.4139955    -1.0909799     2.2744946
C           6.3352810    -0.2156589     1.1395846
H           7.2846524    -0.2835171     1.6643705
C           5.1854898     0.1851408     1.8200801
H           5.2384365     0.4460248     2.8736441
C           1.0141187    -0.5381443     0.7616245
H           1.8006937    -1.1514152     1.1878862
C           3.9643024     0.2683030     1.1495463
H           3.0892125     0.6213519     1.6829675
C           3.8750622    -0.0577156    -0.2140219
C           5.0509079    -0.4143937    -0.8970177
H           4.9852251    -0.6163455    -1.9607458
C           6.2649151    -0.5109440    -0.2251184
H           7.1604435    -0.8058241    -0.7655470
O           2.7803795     0.3193319    -2.2590420
29
423_C14H13NO_11-12-23-24 (180,) energy =    -671.2969259
C           0.2419306     0.8788841    -1.0239536
N           0.4764954     1.5000592    -2.2192085
C          -0.5146797     2.2761238    -2.9295007
H          -0.8343241     3.1486667    -2.3454545
H          -1.4123814     1.6922677    -3.1873014
H          -0.0663666     2.6406803    -3.8568016
H           1.2610919     1.1233218    -2.7372448
C          -0.9946220     1.0326306    -0.3538358
H          -1.7633779     1.6577010    -0.7941137
C          -1.2575163     0.3646498     0.8336238
H          -2.2284802     0.4914029     1.3063248
C           1.2557239     0.0805375    -0.3939807
C           2.5883404    -0.0786096    -1.0297960
C          -0.3060913    -0.4861562     1.4060898
H          -0.5288793    -1.0419768     2.3114016
C           6.3385696    -0.0940683     1.1095074
H           7.2970817    -0.0748558     1.6215614
C           5.1578385     0.1051540     1.8246789
H           5.1932484     0.2945507     2.8941234
C           0.9322175    -0.6093464     0.7890029
H           1.6673028    -1.2869529     1.2107723
C           3.9255925     0.0841733     1.1702176
H           3.0276152     0.2960044     1.7370432
C           3.8530319    -0.1623146    -0.2117629
C           5.0561373    -0.3126154    -0.9255522
H           4.9975946    -0.4515299    -1.9994109
C           6.2837560    -0.2950064    -0.2727911
H           7.2004480    -0.4268292    -0.8413861
O           2.7041234    -0.0248217    -2.2619145
