29
423_C14H13NO_0-11-12-23 (-165,) energy =    -671.3012108
C           0.1424649     1.1534071    -0.5546042
N           0.2001743     2.5099772    -0.4715998
C          -0.9048960     3.3951559    -0.7580940
H          -1.7679448     3.2164812    -0.0994433
H          -1.2464740     3.2992285    -1.7978003
H          -0.5693904     4.4237630    -0.6072267
H           1.0504268     2.8739052    -0.0526117
C          -1.0482549     0.5009406    -0.9610414
H          -1.9182990     1.0948271    -1.2176880
C          -1.1266884    -0.8810975    -1.0099277
H          -2.0619724    -1.3459775    -1.3126746
C           1.2924989     0.3421577    -0.2486564
C           2.5698950     0.9634322     0.1493518
C          -0.0305048    -1.6802689    -0.6577056
H          -0.1060009    -2.7629645    -0.6692437
C           6.3468064    -1.1105126     0.1541046
H           7.3120439    -1.6099709     0.1595412
C           6.0133248    -0.2190915     1.1777619
H           6.7183962    -0.0236018     1.9812838
C           1.1535707    -1.0613687    -0.2891635
H           2.0007481    -1.6722285     0.0013322
C           4.7812804     0.4291479     1.1639544
H           4.5223996     1.1453326     1.9372694
C           3.8503880     0.1713454     0.1457424
C           4.1966484    -0.7181295    -0.8827705
H           3.5031463    -0.8972005    -1.6984705
C           5.4413113    -1.3494432    -0.8805363
H           5.7036481    -2.0253889    -1.6899899
O           2.6467007     2.1532185     0.4961333
29
423_C14H13NO_0-11-12-23 (-150,) energy =    -671.3003770
C           0.1588294     1.1130841    -0.5321288
N           0.2446263     2.4724144    -0.4595618
C          -0.8055950     3.3752814    -0.8709321
H          -1.7392710     3.2256746    -0.3069910
H          -1.0345440     3.2686309    -1.9394965
H          -0.4654025     4.3995129    -0.7013104
H           0.9996385     2.8181925     0.1219714
C          -0.9864735     0.4804921    -1.0723090
H          -1.8051330     1.0881057    -1.4415197
C          -1.0926848    -0.9020551    -1.1050899
H          -1.9963415    -1.3517452    -1.5096341
C           1.2376839     0.2817810    -0.0748961
C           2.4965348     0.8850849     0.4142590
C          -0.0676524    -1.7183252    -0.6111099
H          -0.1661554    -2.7992364    -0.6163128
C           6.3411358    -1.0116762    -0.0001686
H           7.3229425    -1.4669746    -0.1002072
C           6.0719108    -0.1566770     1.0729020
H           6.8432706     0.0532634     1.8090434
C           1.0825986    -1.1169095    -0.1197910
H           1.8864142    -1.7368712     0.2639556
C           4.8177334     0.4337766     1.1948028
H           4.6010666     1.1190363     2.0079175
C           3.8040689     0.1576869     0.2628340
C           4.0850374    -0.6969648    -0.8142133
H           3.3229936    -0.8918681    -1.5615538
C           5.3497271    -1.2719298    -0.9470590
H           5.5599137    -1.9209309    -1.7929420
O           2.5259726     2.0239798     0.9029135
29
423_C14H13NO_0-11-12-23 (-135,) energy =    -671.2978520
C           0.1919305     1.0883441    -0.5168968
N           0.3445069     2.4500651    -0.4662343
C          -0.6542110     3.3800129    -0.9446177
H          -1.6297220     3.2575557    -0.4474519
H          -0.8096909     3.2755429    -2.0258356
H          -0.2983810     4.3956560    -0.7557121
H           0.9847628     2.7697930     0.2498567
C          -0.9170051     0.4934587    -1.1591832
H          -1.6660954     1.1240375    -1.6250870
C          -1.0795632    -0.8864759    -1.1767986
H          -1.9560299    -1.3066816    -1.6641974
C           1.1702057     0.2246149     0.0717872
C           2.4163677     0.7923916     0.6502972
C          -0.1463845    -1.7318783    -0.5687829
H          -0.2861097    -2.8083060    -0.5705335
C           6.3065814    -0.8678084    -0.1492774
H           7.2987827    -1.2655059    -0.3460326
C           6.0886155    -0.0470860     0.9620212
H           6.9105176     0.1929310     1.6311931
C           0.9757608    -1.1649502     0.0255032
H           1.7225564    -1.8062365     0.4850992
C           4.8200322     0.4676675     1.2079440
H           4.6361849     1.1216458     2.0540910
C           3.7443541     0.1539399     0.3599613
C           3.9726798    -0.6683195    -0.7543305
H           3.1585532    -0.8963950    -1.4336501
C           5.2497517    -1.1699222    -1.0089632
H           5.4184247    -1.7949564    -1.8816877
O           2.3981083     1.8514722     1.2879948
29
423_C14H13NO_0-11-12-23 (-120,) energy =    -671.2942812
C           0.2573577     1.0199499    -0.5034988
N           0.5100442     2.3769882    -0.4790966
C          -0.4235625     3.3460822    -1.0141552
H          -1.4263368     3.2821605    -0.5609781
H          -0.5334475     3.2256329    -2.0985647
H          -0.0254449     4.3471074    -0.8305782
H           1.0451180     2.6749443     0.3263009
C          -0.8315441     0.4769307    -1.2153104
H          -1.5000340     1.1366610    -1.7573491
C          -1.0760324    -0.8938557    -1.2150574
H          -1.9342109    -1.2756304    -1.7626755
C           1.1192227     0.1201105     0.1894966
C           2.3547496     0.6428766     0.8526055
C          -0.2461792    -1.7730442    -0.5173404
H          -0.4448214    -2.8402552    -0.5107443
C           6.2765614    -0.6896027    -0.3019846
H           7.2761432    -1.0073033    -0.5870751
C           6.0915554     0.0913820     0.8438889
H           6.9459743     0.3794699     1.4503944
C           0.8584198    -1.2542354     0.1560517
H           1.5356892    -1.9245280     0.6795492
C           4.8132196     0.5021525     1.2052305
H           4.6480022     1.1186088     2.0827598
C           3.6991836     0.1289019     0.4336997
C           3.8935798    -0.6550361    -0.7141804
H           3.0439300    -0.9345389    -1.3273116
C           5.1783938    -1.0568492    -1.0809607
H           5.3210361    -1.6550324    -1.9767763
O           2.2853641     1.5800896     1.6499319
29
423_C14H13NO_0-11-12-23 (-105,) energy =    -671.2906734
C           0.3116533     0.9334544    -0.4871397
N           0.6829184     2.2717396    -0.4917095
C          -0.1586223     3.2867405    -1.0955673
H          -1.1861396     3.2994551    -0.6964611
H          -0.2177140     3.1434166    -2.1807256
H           0.2950336     4.2645029    -0.9149230
H           1.1426302     2.5615419     0.3619439
C          -0.7697435     0.4501117    -1.2467840
H          -1.3513769     1.1356350    -1.8533511
C          -1.1136723    -0.9010061    -1.2208788
H          -1.9601791    -1.2406252    -1.8124524
C           1.0523588     0.0039307     0.2906859
C           2.2775250     0.4761405     1.0277021
C          -0.3955869    -1.8090927    -0.4442319
H          -0.6690245    -2.8594934    -0.4200631
C           6.2099192    -0.4552917    -0.4301051
H           7.2108189    -0.6772857    -0.7911401
C           6.0388495     0.2530605     0.7644373
H           6.9060078     0.5803833     1.3316534
C           0.6980163    -1.3459679     0.2901786
H           1.2904855    -2.0435799     0.8776702
C           4.7584579     0.5390348     1.2246698
H           4.6008568     1.0915282     2.1452342
C           3.6308876     0.1175769     0.4990593
C           3.8106674    -0.5942721    -0.6968681
H           2.9457118    -0.9172465    -1.2660708
C           5.0963841    -0.8754530    -1.1592966
H           5.2282514    -1.4218298    -2.0891517
O           2.1664032     1.2405662     1.9835984
29
423_C14H13NO_0-11-12-23 (-90,) energy =    -671.2882149
C           0.3869130     0.8322592    -0.4851213
N           0.8915251     2.1302806    -0.5490355
C           0.1660893     3.1822519    -1.2370654
H          -0.8631051     3.3225067    -0.8677882
H           0.1159616     2.9713149    -2.3112271
H           0.7118543     4.1205632    -1.1090926
H           1.3259499     2.4342097     0.3131307
C          -0.7183089     0.4133654    -1.2462451
H          -1.2226464     1.1160363    -1.9006423
C          -1.1839014    -0.8992731    -1.1611514
H          -2.0425264    -1.1940142    -1.7591528
C           1.0213010    -0.1147124     0.3561427
C           2.2420420     0.2897319     1.1512555
C          -0.5724580    -1.8219321    -0.3147597
H          -0.9421181    -2.8402661    -0.2425767
C           6.1589102    -0.1677296    -0.5467378
H           7.1554991    -0.2772699    -0.9665595
C           5.9973330     0.3552386     0.7410055
H           6.8673061     0.6510916     1.3210914
C           0.5347469    -1.4185084     0.4360892
H           1.0358654    -2.1284206     1.0898291
C           4.7224092     0.4960674     1.2780084
H           4.5708082     0.9003367     2.2737188
C           3.5930983     0.1140761     0.5345156
C           3.7629437    -0.4121458    -0.7546625
H           2.8935326    -0.7102261    -1.3313971
C           5.0422699    -0.5495694    -1.2926873
H           5.1676596    -0.9554241    -2.2927342
O           2.1163305     0.7952287     2.2610838
29
423_C14H13NO_0-11-12-23 (-75,) energy =    -671.2880855
C           0.4410695     0.7241837    -0.5215041
N           1.0677654     1.9555037    -0.6929511
C           0.4192825     3.0473637    -1.3949308
H          -0.5672521     3.3104102    -0.9801398
H           0.2875240     2.7996552    -2.4544547
H           1.0654693     3.9270081    -1.3393505
H           1.6339240     2.2503961     0.0904551
C          -0.7244476     0.3819734    -1.2318888
H          -1.1698591     1.0969236    -1.9149731
C          -1.3239205    -0.8647862    -1.0594477
H          -2.2226223    -1.1001518    -1.6239904
C           0.9955213    -0.2352152     0.3628149
C           2.2163506     0.0647407     1.2006910
C          -0.7963711    -1.7945593    -0.1644967
H          -1.2729147    -2.7592500    -0.0194597
C           6.1232140     0.1332261    -0.5848953
H           7.1173495     0.1474360    -1.0241580
C           5.9531897     0.4432951     0.7686171
H           6.8140793     0.6978196     1.3809912
C           0.3535965    -1.4608450     0.5514221
H           0.7751013    -2.1631516     1.2657937
C           4.6810435     0.4229010     1.3308537
H           4.5240080     0.6536516     2.3796805
C           3.5631462     0.0943531     0.5462021
C           3.7415374    -0.2152103    -0.8104158
H           2.8817315    -0.4750874    -1.4192515
C           5.0177604    -0.1964094    -1.3718433
H           5.1500937    -0.4402930    -2.4223597
O           2.1043189     0.2292038     2.4096093
29
423_C14H13NO_0-11-12-23 (-60,) energy =    -671.2894620
C           0.4859354     0.6393390    -0.5362609
N           1.1934188     1.8074173    -0.7721678
C           0.6191684     2.9420957    -1.4673607
H          -0.3189389     3.2979877    -1.0128836
H           0.4169245     2.6988866    -2.5175188
H           1.3438730     3.7597697    -1.4515173
H           1.9104654     2.0328924    -0.0998405
C          -0.7343778     0.3892615    -1.1966502
H          -1.1311770     1.1238027    -1.8886666
C          -1.4464599    -0.7843069    -0.9659942
H          -2.3815468    -0.9462248    -1.4964420
C           0.9746594    -0.3448651     0.3664605
C           2.2170808    -0.1708337     1.1969141
C          -0.9842324    -1.7359289    -0.0555033
H          -1.5479885    -2.6437719     0.1357142
C           6.0846313     0.3917425    -0.5976873
H           7.0702873     0.5222976    -1.0368707
C           5.8958650     0.6043102     0.7716813
H           6.7338468     0.8997384     1.3972956
C           0.2100253    -1.4912261     0.6161341
H           0.5815861    -2.1988572     1.3515736
C           4.6350534     0.4302084     1.3341906
H           4.4677951     0.5717126     2.3971626
C           3.5445659     0.0543416     0.5325533
C           3.7419511    -0.1556131    -0.8409018
H           2.9063986    -0.4583417    -1.4634972
C           5.0085335     0.0078112    -1.4008055
H           5.1562587    -0.1659988    -2.4631613
O           2.1572379    -0.2926931     2.4156167
29
423_C14H13NO_0-11-12-23 (-45,) energy =    -671.2901523
C           0.5165192     0.5579632    -0.5449456
N           1.2705248     1.6849420    -0.8037970
C           0.7663984     2.8317017    -1.5299879
H          -0.1519457     3.2476864    -1.0875157
H           0.5550299     2.5808168    -2.5772191
H           1.5347412     3.6084802    -1.5239575
H           2.0591799     1.8533773    -0.2002994
C          -0.7321412     0.3812189    -1.1805623
H          -1.0861646     1.1298890    -1.8803817
C          -1.5233655    -0.7308867    -0.9169320
H          -2.4760632    -0.8332323    -1.4307930
C           0.9503897    -0.4455939     0.3711510
C           2.2276913    -0.4026068     1.1550728
C          -1.1162992    -1.6986282     0.0049248
H          -1.7403422    -2.5603873     0.2202948
C           6.0369535     0.5807030    -0.5891435
H           7.0105178     0.8111099    -1.0139225
C           5.8155235     0.7481095     0.7811060
H           6.6154110     1.1076737     1.4227884
C           0.1045246    -1.5317330     0.6466345
H           0.4446585    -2.2536360     1.3825780
C           4.5717953     0.4411436     1.3265683
H           4.3878635     0.5354421     2.3920697
C           3.5266425    -0.0109878     0.5050336
C           3.7569438    -0.1747442    -0.8699200
H           2.9590582    -0.5411798    -1.5080366
C           5.0096080     0.1122076    -1.4113070
H           5.1844995    -0.0311659    -2.4741198
O           2.2358753    -0.7504134     2.3322139
29
423_C14H13NO_0-11-12-23 (-30,) energy =    -671.2894690
C           0.5348039     0.5161692    -0.5535424
N           1.3244261     1.6042803    -0.8537945
C           0.8611160     2.7527707    -1.6033651
H          -0.0272191     3.2229441    -1.1546704
H           0.6170891     2.4860659    -2.6397526
H           1.6652694     3.4918490    -1.6312937
H           2.1551236     1.7359450    -0.3004929
C          -0.7448461     0.4008358    -1.1440152
H          -1.0750279     1.1545777    -1.8497485
C          -1.5946271    -0.6511414    -0.8292302
H          -2.5684970    -0.7035273    -1.3099851
C           0.9400792    -0.4951123     0.3726229
C           2.2590526    -0.5785202     1.0746534
C          -1.2164446    -1.6243845     0.1005163
H          -1.8842043    -2.4416007     0.3548752
C           6.0110185     0.7683881    -0.5529817
H           6.9725675     1.0855745    -0.9480552
C           5.7437609     0.8846561     0.8139774
H           6.4967976     1.2910900     1.4837202
C           0.0358372    -1.5257397     0.6888534
H           0.3652853    -2.2604589     1.4162178
C           4.5170343     0.4628350     1.3220672
H           4.3066376     0.5102078     2.3858706
C           3.5295031    -0.0456287     0.4641728
C           3.8056105    -0.1587606    -0.9075605
H           3.0535529    -0.5698142    -1.5740712
C           5.0447018     0.2374091    -1.4104493
H           5.2564931     0.1303330    -2.4708682
O           2.3366674    -1.1177463     2.1758486
29
423_C14H13NO_0-11-12-23 (-15,) energy =    -671.2875466
C           0.5350965     0.4796602    -0.5742601
N           1.3662374     1.5116226    -0.9455323
C           0.9280985     2.6731439    -1.6906471
H           0.1011236     3.2070561    -1.1983334
H           0.6030431     2.4036562    -2.7037106
H           1.7737511     3.3585700    -1.7841962
H           2.2377031     1.6013609    -0.4499190
C          -0.7873496     0.4481727    -1.0779512
H          -1.1087829     1.2160604    -1.7720723
C          -1.6873333    -0.5351454    -0.6945826
H          -2.6924479    -0.5205700    -1.1092130
C           0.9307066    -0.5495327     0.3404121
C           2.2875585    -0.7628293     0.9327288
C          -1.3165474    -1.5272621     0.2191246
H          -2.0211979    -2.2937591     0.5264144
C           6.0011061     0.9116362    -0.4720125
H           6.9548695     1.3080538    -0.8101079
C           5.6625379     0.9629222     0.8827395
H           6.3527193     1.3976690     1.6006876
C          -0.0232874    -1.5171597     0.7155212
H           0.3069771    -2.2756034     1.4171300
C           4.4471650     0.4382237     1.3189326
H           4.1904877     0.4337730     2.3737213
C           3.5379643    -0.1059274     0.3994363
C           3.8856352    -0.1549809    -0.9597277
H           3.1948617    -0.5916272    -1.6750637
C           5.1159889     0.3424336    -1.3902184
H           5.3837856     0.2838993    -2.4417661
O           2.4251744    -1.4882415     1.9155085
29
423_C14H13NO_0-11-12-23 (0,) energy =    -671.2851470
C           0.5317775     0.4326834    -0.5980003
N           1.3956225     1.3880696    -1.0795304
C           0.9704363     2.5747431    -1.7925824
H           0.2530899     3.1824697    -1.2203457
H           0.5095733     2.3220059    -2.7558530
H           1.8536631     3.1849278    -1.9960161
H           2.3175120     1.4187737    -0.6762640
C          -0.8374090     0.5100843    -0.9526011
H          -1.1705877     1.3075350    -1.6064405
C          -1.7651702    -0.4040362    -0.4785295
H          -2.8055957    -0.3035369    -0.7782940
C           0.9421401    -0.6330818     0.2691170
C           2.3300462    -0.9629131     0.7148732
C          -1.3750685    -1.4384782     0.3793982
H          -2.0999696    -2.1531075     0.7566619
C           5.9901654     1.0540575    -0.3563532
H           6.9311220     1.5354075    -0.6088484
C           5.5366650     1.0530746     0.9649991
H           6.1246302     1.5318203     1.7434370
C          -0.0394460    -1.5365772     0.7288200
H           0.3063316    -2.3327050     1.3789995
C           4.3375627     0.4214737     1.2931966
H           3.9991565     0.3846237     2.3244139
C           3.5590658    -0.1842071     0.2964105
C           4.0215074    -0.1816768    -1.0286405
H           3.4316994    -0.6613824    -1.8048944
C           5.2354533     0.4279660    -1.3503379
H           5.5918922     0.4106863    -2.3768126
O           2.5273237    -1.8748737     1.5147972
29
423_C14H13NO_0-11-12-23 (15,) energy =    -671.2875461
C           0.5550237     0.5620355    -0.4808325
N           1.3930594     1.4861833    -1.0618239
C           0.9326419     2.6812557    -1.7372062
H           0.4398201     3.3726332    -1.0418383
H           0.2302927     2.4636462    -2.5562330
H           1.8019393     3.1941169    -2.1555370
H           2.3309868     1.1876609    -1.2724425
C          -0.8261520     0.8550330    -0.3804504
H          -1.1921284     1.8128978    -0.7315871
C          -1.7264884    -0.0601031     0.1446659
H          -2.7782262     0.2095458     0.2039986
C           1.0080113    -0.7124201    -0.0086506
C           2.4189292    -1.2048476     0.0592270
C          -1.2954993    -1.3165560     0.5829772
H          -1.9991462    -2.0372533     0.9878774
C           5.9943585     1.1899094    -0.1614942
H           6.9136526     1.7682318    -0.2008783
C           4.9462068     1.5994016     0.6656919
H           5.0518384     2.4894439     1.2801554
C           0.0542010    -1.6172798     0.4999209
H           0.4301299    -2.5764401     0.8394168
C           3.7604709     0.8654026     0.7074057
H           2.9433689     1.1879815     1.3460115
C           3.6203438    -0.2988941    -0.0642492
C           4.6908258    -0.7201636    -0.8673089
H           4.5923455    -1.6444472    -1.4280832
C           5.8628864     0.0313402    -0.9315998
H           6.6797917    -0.2944582    -1.5698298
O           2.6486282    -2.4037697     0.2035379
29
423_C14H13NO_0-11-12-23 (30,) energy =    -671.2894686
C           0.5614580     0.5745578    -0.5317521
N           1.3749735     1.4623516    -1.2010961
C           0.8905388     2.6528547    -1.8671945
H           0.4773776     3.3750388    -1.1513679
H           0.1147711     2.4348995    -2.6170576
H           1.7333402     3.1308981    -2.3720227
H           2.2834184     1.1310981    -1.4814146
C          -0.7955090     0.9048553    -0.3103694
H          -1.1703803     1.8659154    -0.6435607
C          -1.6634665     0.0184995     0.3132251
H          -2.6982193     0.3148999     0.4672316
C           1.0238803    -0.7010945    -0.0804824
C           2.4215553    -1.2262885    -0.1834099
C          -1.2244790    -1.2427092     0.7270229
H          -1.9046901    -1.9403282     1.2056470
C           5.9842050     1.1851565    -0.0016370
H           6.8985614     1.7697152     0.0576250
C           4.8677375     1.5566453     0.7509899
H           4.9150317     2.4232672     1.4048476
C           0.1038553    -1.5824051     0.5168564
H           0.4821428    -2.5524882     0.8222198
C           3.6895392     0.8150164     0.6669785
H           2.8209623     1.1044140     1.2505970
C           3.6245478    -0.3192527    -0.1576202
C           4.7604732    -0.7009401    -0.8882462
H           4.7110354    -1.6011425    -1.4926945
C           5.9275257     0.0572607    -0.8251336
H           6.7972192    -0.2374701    -1.4061490
O           2.6197850    -2.4359909    -0.2657019
29
423_C14H13NO_0-11-12-23 (45,) energy =    -671.2901521
C           0.5486389     0.5913247    -0.5719289
N           1.3315420     1.4621649    -1.3029870
C           0.8057977     2.6275240    -1.9828334
H           0.4293072     3.3712932    -1.2691171
H          -0.0092363     2.3830550    -2.6814829
H           1.6171850     3.0919703    -2.5482556
H           2.2089021     1.1061868    -1.6466204
C          -0.7879427     0.9290875    -0.2656330
H          -1.1877690     1.8805905    -0.5978353
C          -1.6060847     0.0584548     0.4449872
H          -2.6278550     0.3576272     0.6655301
C           1.0417776    -0.6687775    -0.1207167
C           2.4192242    -1.1994220    -0.3832199
C          -1.1362265    -1.1905059     0.8589890
H          -1.7791659    -1.8757436     1.4026052
C           5.9928857     1.1342545     0.1654591
H           6.9075891     1.7024229     0.3133263
C           4.8274120     1.4996727     0.8429173
H           4.8358434     2.3457041     1.5247358
C           0.1731784    -1.5409374     0.5545628
H           0.5667779    -2.5103703     0.8439596
C           3.6499910     0.7784054     0.6476187
H           2.7444723     1.0600982     1.1756066
C           3.6338320    -0.3275903    -0.2165158
C           4.8155294    -0.6996472    -0.8774511
H           4.7948646    -1.5742067    -1.5198964
C           5.9847612     0.0347981    -0.6981873
H           6.8923464    -0.2533572    -1.2217369
O           2.5743781    -2.3804981    -0.6793462
29
423_C14H13NO_0-11-12-23 (60,) energy =    -671.2894620
C           0.5244669     0.6236369    -0.6487804
N           1.2681132     1.4917740    -1.4323292
C           0.6776557     2.6190567    -2.1259873
H           0.3094168     3.3691332    -1.4155894
H          -0.1583793     2.3324778    -2.7833852
H           1.4508717     3.0931467    -2.7354247
H           2.0885024     1.1000230    -1.8688089
C          -0.7927663     0.9475173    -0.2643324
H          -1.2348002     1.8810487    -0.5945047
C          -1.5420193     0.0805827     0.5259397
H          -2.5528836     0.3649717     0.8074622
C           1.0707423    -0.6101385    -0.1995759
C           2.4292957    -1.1158909    -0.6021637
C          -1.0185642    -1.1453576     0.9398414
H          -1.6092298    -1.8279167     1.5429894
C           6.0251090     1.0479628     0.3363497
H           6.9432646     1.5774122     0.5774035
C           4.8206255     1.4370809     0.9264143
H           4.8006735     2.2646265     1.6302754
C           0.2742345    -1.4839338     0.5509105
H           0.6994378    -2.4427510     0.8329523
C           3.6403264     0.7628861     0.6153283
H           2.7049461     1.0618119     1.0769650
C           3.6586413    -0.3152080    -0.2829045
C           4.8765761    -0.7059234    -0.8634012
H           4.8748149    -1.5524739    -1.5425647
C           6.0515579    -0.0245476    -0.5609127
H           6.9893737    -0.3294865    -1.0174225
O           2.5385887    -2.2215680    -1.1210114
29
423_C14H13NO_0-11-12-23 (75,) energy =    -671.2880850
C           0.4883608     0.6512353    -0.7340150
N           1.1663477     1.4907396    -1.6139987
C           0.4980314     2.5944287    -2.2780717
H           0.1986576     3.3573326    -1.5502779
H          -0.3985441     2.2887564    -2.8412667
H           1.2029586     3.0587670    -2.9722501
H           1.8579743     1.0267128    -2.1863797
C          -0.7886801     0.9744982    -0.2392394
H          -1.2787552     1.8859369    -0.5636823
C          -1.4406073     0.1289778     0.6571883
H          -2.4257921     0.4071744     1.0229383
C           1.0985078    -0.5481472    -0.2879885
C           2.4452556    -0.9973595    -0.8048615
C          -0.8534192    -1.0665798     1.0690913
H          -1.3685395    -1.7320508     1.7550732
C           6.0478774     0.9070834     0.5550570
H           6.9665321     1.3772797     0.8962991
C           4.8204026     1.3082790     1.0863674
H           4.7823904     2.0885989     1.8415056
C           0.4083980    -1.4003504     0.5765206
H           0.8801862    -2.3339891     0.8714049
C           3.6405784     0.7065870     0.6501600
H           2.6860405     1.0140266     1.0646387
C           3.6818307    -0.3045553    -0.3214199
C           4.9211689    -0.7032837    -0.8489791
H           4.9330641    -1.4911843    -1.5953019
C           6.0969769    -0.1004475    -0.4142398
H           7.0527955    -0.4134543    -0.8257676
O           2.5205838    -1.9518335    -1.5693173
29
423_C14H13NO_0-11-12-23 (90,) energy =    -671.2882150
C           0.4479222     0.6629713    -0.8551669
N           1.0239862     1.4333646    -1.8636201
C           0.2800734     2.4978296    -2.5112385
H           0.0642348     3.3015546    -1.7981897
H          -0.6747785     2.1644196    -2.9497935
H           0.8993515     2.9188837    -3.3073677
H           1.6029978     0.8977969    -2.4977259
C          -0.7817364     0.9959959    -0.2606100
H          -1.3260799     1.8715257    -0.5975187
C          -1.3185285     0.2037116     0.7548011
H          -2.2726807     0.4839392     1.1938652
C           1.1316457    -0.4860841    -0.3868541
C           2.4792845    -0.8450215    -0.9707527
C          -0.6552333    -0.9392002     1.1968182
H          -1.0789758    -1.5600763     1.9802873
C           6.0683031     0.7151706     0.7959641
H           6.9837016     1.1053363     1.2333073
C           4.8321581     1.0487884     1.3524985
H           4.7836857     1.6985364     2.2219815
C           0.5738376    -1.2711005     0.6209736
H           1.1147803    -2.1498747     0.9639332
C           3.6566510     0.5473040     0.7941399
H           2.6948806     0.8035671     1.2261934
C           3.7114003    -0.2897125    -0.3302378
C           4.9597151    -0.6201476    -0.8839324
H           4.9815601    -1.2697079    -1.7530892
C           6.1307322    -0.1214133    -0.3239022
H           7.0935059    -0.3812678    -0.7556578
O           2.5510914    -1.5390259    -1.9788505
29
423_C14H13NO_0-11-12-23 (105,) energy =    -671.2906739
C           0.3785875     0.7182294    -0.9468071
N           0.8358767     1.4479013    -2.0366927
C          -0.0142731     2.4105340    -2.7103817
H          -0.2420823     3.2537043    -2.0480422
H          -0.9685486     1.9840861    -3.0607296
H           0.5266865     2.8049399    -3.5742625
H           1.4320410     0.9115482    -2.6539783
C          -0.8319637     1.0180117    -0.2953627
H          -1.4467786     1.8370558    -0.6522404
C          -1.2599508     0.2663155     0.7984147
H          -2.2044924     0.5184377     1.2739664
C           1.1589699    -0.3584915    -0.4477712
C           2.5071195    -0.6322638    -1.0601412
C          -0.5005230    -0.8005056     1.2766383
H          -0.8385476    -1.3890669     2.1240024
C           6.1154053     0.4771237     0.9905703
H           7.0364308     0.7586015     1.4944650
C           4.8823579     0.7810815     1.5697140
H           4.8413138     1.3014427     2.5226491
C           0.7170936    -1.0884568     0.6566038
H           1.3393818    -1.8967137     1.0338829
C           3.6989604     0.4185189     0.9262420
H           2.7411309     0.6588415     1.3748492
C           3.7424823    -0.2470603    -0.3084423
C           4.9889085    -0.5460714    -0.8851288
H           5.0036577    -1.0577001    -1.8419674
C           6.1669901    -0.1882680    -0.2392912
H           7.1271181    -0.4244559    -0.6900714
O           2.5872642    -1.0610093    -2.2090583
29
423_C14H13NO_0-11-12-23 (120,) energy =    -671.2942815
C           0.3285323     0.7718015    -1.0196773
N           0.6735255     1.4750073    -2.1564816
C          -0.2595953     2.3484324    -2.8372373
H          -0.5319628     3.2002654    -2.2026126
H          -1.1888829     1.8405431    -3.1429616
H           0.2274281     2.7440175    -3.7319793
H           1.3388223     0.9914232    -2.7457809
C          -0.8861867     1.0001348    -0.3417949
H          -1.5794710     1.7431537    -0.7202400
C          -1.2207414     0.2695589     0.7953567
H          -2.1730358     0.4619878     1.2834309
C           1.2184264    -0.2065150    -0.4868878
C           2.5695088    -0.3902519    -1.1033930
C          -0.3604395    -0.7050279     1.3038352
H          -0.6281702    -1.2800665     2.1847941
C           6.1840174     0.2534634     1.1362441
H           7.1079057     0.4210081     1.6837451
C           4.9620045     0.6266302     1.6974651
H           4.9325318     1.0909882     2.6793694
C           0.8626328    -0.9117514     0.6681429
H           1.5612377    -1.6437208     1.0659122
C           3.7740151     0.4077070     0.9992084
H           2.8275062     0.7080992     1.4349203
C           3.8012315    -0.1793879    -0.2753690
C           5.0382733    -0.5418220    -0.8358504
H           5.0441526    -0.9834041    -1.8269756
C           6.2199921    -0.3325876    -0.1335531
H           7.1709887    -0.6220265    -0.5725204
O           2.6800380    -0.5907197    -2.3144407
29
423_C14H13NO_0-11-12-23 (135,) energy =    -671.2978519
C           0.2665633     0.8133143    -1.0799337
N           0.5174644     1.4881978    -2.2469209
C          -0.4746749     2.2867269    -2.9318509
H          -0.7920556     3.1392601    -2.3181978
H          -1.3737983     1.7128162    -3.2075335
H          -0.0270885     2.6827932    -3.8465234
H           1.2746887     1.1008464    -2.7960144
C          -0.9615141     0.9529477    -0.3954148
H          -1.7255696     1.6087638    -0.7978288
C          -1.2182959     0.2395435     0.7691181
H          -2.1826279     0.3585931     1.2571893
C           1.2589300    -0.0470399    -0.5102307
C           2.6114586    -0.1349447    -1.1209974
C          -0.2664420    -0.6318505     1.3074178
H          -0.4773964    -1.1998909     2.2080074
C           6.2231692     0.0341675     1.2149623
H           7.1474335     0.0841958     1.7846908
C           5.0348239     0.5150190     1.7662161
H           5.0329635     0.9492876     2.7622884
C           0.9657630    -0.7438616     0.6726836
H           1.7260267    -1.4000180     1.0869512
C           3.8450874     0.4438043     1.0403407
H           2.9272093     0.8310369     1.4691256
C           3.8370109    -0.0994755    -0.2537350
C           5.0429277    -0.5627068    -0.8066455
H           5.0282759    -0.9608586    -1.8159636
C           6.2245428    -0.5063501    -0.0749465
H           7.1491151    -0.8781916    -0.5083106
O           2.7576757    -0.1320212    -2.3486800
29
423_C14H13NO_0-11-12-23 (150,) energy =    -671.3003772
C           0.2330392     0.8356653    -1.0978644
N           0.4204966     1.4844725    -2.2828879
C          -0.6144934     2.2082694    -2.9844765
H          -1.0017821     3.0425505    -2.3847743
H          -1.4650912     1.5678704    -3.2646769
H          -0.1848228     2.6236157    -3.8990321
H           1.2738536     1.2365628    -2.7708125
C          -1.0185510     0.8660057    -0.4371863
H          -1.8393039     1.4215599    -0.8769983
C          -1.2215524     0.1691431     0.7447175
H          -2.2026174     0.2004152     1.2126894
C           1.3080000     0.1128321    -0.4765657
C           2.6625412     0.1211883    -1.0709621
C          -0.1934970    -0.5821256     1.3274976
H          -0.3646088    -1.1456860     2.2392119
C           6.2687303    -0.1641832     1.2668976
H           7.1922682    -0.2266704     1.8364917
C           5.1353130     0.4190288     1.8347545
H           5.1763924     0.8224152     2.8429578
C           1.0537327    -0.5863442     0.7187750
H           1.8608388    -1.1618224     1.1604980
C           3.9451347     0.4905836     1.1095176
H           3.0716557     0.9580953     1.5518828
C           3.8817015    -0.0096026    -0.2001672
C           5.0359111    -0.5699429    -0.7711793
H           4.9861650    -0.9271693    -1.7947044
C           6.2162107    -0.6597027    -0.0394780
H           7.0984887    -1.1091524    -0.4873001
O           2.8399330     0.2974365    -2.2850986
29
423_C14H13NO_0-11-12-23 (165,) energy =    -671.3012108
C           0.2166717     0.8745460    -1.1230314
N           0.3777085     1.5108605    -2.3145476
C          -0.6946228     2.1133943    -3.0720899
H          -1.1893738     2.9180181    -2.5111457
H          -1.4629156     1.3829375    -3.3666526
H          -0.2717317     2.5471957    -3.9811222
H           1.3023669     1.4183171    -2.7236490
C          -1.0618116     0.7766608    -0.5192072
H          -1.9174442     1.2247608    -1.0117948
C          -1.2401138     0.0963272     0.6740925
H          -2.2386987     0.0300382     1.0994894
C           1.3411449     0.2970885    -0.4328313
C           2.7019469     0.3938656    -0.9941299
C          -0.1612739    -0.5190649     1.3234985
H          -0.3108843    -1.0760368     2.2429898
C           6.2901454    -0.3461857     1.2743254
H           7.2098385    -0.5231562     1.8257156
C           5.2302149     0.3301161     1.8798000
H           5.3262473     0.6927864     2.8996915
C           1.1028968    -0.4068499     0.7665514
H           1.9397937    -0.8945277     1.2533958
C           4.0441800     0.5475585     1.1770131
H           3.2289301     1.0872410     1.6486993
C           3.9116650     0.1013989    -0.1466877
C           4.9955681    -0.5489293    -0.7566237
H           4.9004545    -0.8597121    -1.7921512
C           6.1696311    -0.7860979    -0.0469045
H           6.9953403    -1.3060542    -0.5252679
O           2.9087596     0.7212576    -2.1738598
29
423_C14H13NO_0-11-12-23 (180,) energy =    -671.3002533
C           0.2184663     0.9118779    -1.1237432
N           0.3738510     1.5484751    -2.3142178
C          -0.7137909     1.9975097    -3.1523768
H          -1.3385661     2.7479795    -2.6483056
H          -1.3658472     1.1704342    -3.4690733
H          -0.2897212     2.4577683    -4.0477032
H           1.3351812     1.6173258    -2.6365468
C          -1.0761958     0.6720711    -0.5971373
H          -1.9451290     1.0065185    -1.1525757
C          -1.2489381     0.0089015     0.6053439
H          -2.2576731    -0.1617539     0.9739626
C           1.3599365     0.4800037    -0.3553174
C           2.7280592     0.6603400    -0.8721098
C          -0.1477266    -0.4567014     1.3378279
H          -0.2888404    -1.0009049     2.2662593
C           6.2932512    -0.5281349     1.2409914
H           7.2070016    -0.8191484     1.7523120
C           5.3281383     0.2282908     1.9072099
H           5.4932733     0.5397460     2.9351660
C           1.1261129    -0.2236265     0.8470619
H           1.9774241    -0.6120517     1.3928100
C           4.1491536     0.5920740     1.2546232
H           3.4092820     1.1940226     1.7740254
C           3.9288861     0.2128564    -0.0778328
C           4.9206191    -0.5171061    -0.7494821
H           4.7651993    -0.7752950    -1.7923061
C           6.0859732    -0.9004079    -0.0898030
H           6.8386043    -1.4810560    -0.6164860
O           2.9565388     1.1297944    -1.9994608
