25
178_C10H13NO_10-0-2-3 (-165,) energy =    -518.8870288
N           2.1109136    -1.7914036    -0.2475107
H           2.9257700    -2.2625222    -0.6147210
C           2.1938554    -0.4415793    -0.0540085
C           3.5373473     0.2130573    -0.4646088
C           3.7409728     1.5274970     0.3074494
H           4.6037387     2.0717771    -0.0896356
H           3.9172496     1.3392825     1.3716968
H           2.8472832     2.1491639     0.2228675
H           3.3928053     0.4704720    -1.5244937
O           1.2514806     0.2336153     0.3438766
C           0.8459836    -2.5033443    -0.2214287
H           0.9151535    -3.4015386     0.4024202
H           0.5299894    -2.7988706    -1.2303997
H           0.0994340    -1.8298202     0.2014313
C           6.9992557    -2.3957807    -0.2338712
H           7.8692029    -3.0442845    -0.1754563
C           6.2976788    -2.0534769     0.9253232
H           6.6197988    -2.4374258     1.8897745
C           5.1825080    -1.2204697     0.8512522
H           4.6415022    -0.9668422     1.7595633
C           4.7441479    -0.7092838    -0.3817396
C           5.4552548    -1.0653331    -1.5358530
H           5.1342874    -0.6778152    -2.5006246
C           6.5737880    -1.8996792    -1.4656918
H           7.1115449    -2.1581420    -2.3741636
25
178_C10H13NO_10-0-2-3 (-150,) energy =    -518.8846692
N           2.0666615    -1.7887719    -0.1031432
H           2.8645774    -2.2258975    -0.5463848
C           2.1513152    -0.4317257     0.0835384
C           3.4531317     0.2372491    -0.4223193
C           3.6637050     1.5934271     0.2708367
H           4.4936837     2.1337488    -0.1954731
H           3.8962019     1.4622205     1.3327931
H           2.7536386     2.1929339     0.2006122
H           3.2445688     0.4332698    -1.4849500
O           1.2208849     0.2341630     0.5192163
C           0.7799443    -2.4406713    -0.2997046
H           0.8065878    -3.4616414     0.0937986
H           0.4994285    -2.4766890    -1.3615031
H           0.0268881    -1.8681403     0.2432059
C           6.9919472    -2.2689042    -0.2376106
H           7.8812537    -2.8914950    -0.1899287
C           6.3134326    -1.9213684     0.9337176
H           6.6728377    -2.2755635     1.8963493
C           5.1731684    -1.1220189     0.8739998
H           4.6495436    -0.8644700     1.7914077
C           4.6863428    -0.6511950    -0.3566273
C           5.3746719    -1.0118527    -1.5228474
H           5.0155901    -0.6543083    -2.4858293
C           6.5184956    -1.8123971    -1.4671967
H           7.0378442    -2.0757048    -2.3849541
25
178_C10H13NO_10-0-2-3 (-135,) energy =    -518.8803747
N           2.0623620    -1.8510725     0.0064689
H           2.8557700    -2.2657750    -0.4696123
C           2.1957496    -0.4917355     0.2184212
C           3.4557515     0.1674278    -0.3918411
C           3.6856997     1.5639099     0.2067616
H           4.4839297     2.0821054    -0.3342084
H           3.9756372     1.4966815     1.2604346
H           2.7673034     2.1523694     0.1509375
H           3.1869018     0.2914921    -1.4520533
O           1.3074974     0.1789986     0.7237961
C           0.7692595    -2.3929182    -0.4018631
H           0.7074856    -3.4545760    -0.1444266
H           0.5990983    -2.2783699    -1.4818234
H          -0.0111310    -1.8538470     0.1370762
C           7.0386331    -2.2761461    -0.2288038
H           7.9394787    -2.8822741    -0.1861595
C           6.3767764    -1.9166076     0.9482708
H           6.7605357    -2.2449453     1.9106224
C           5.2215230    -1.1385675     0.8944566
H           4.7112184    -0.8703277     1.8164916
C           4.7032223    -0.7024693    -0.3358628
C           5.3747783    -1.0747276    -1.5079988
H           4.9906361    -0.7438615    -2.4708866
C           6.5336417    -1.8535151    -1.4580609
H           7.0398017    -2.1271683    -2.3801298
25
178_C10H13NO_10-0-2-3 (-120,) energy =    -518.8744833
N           2.0581758    -1.8878995     0.1180495
H           2.8672179    -2.3080740    -0.3301354
C           2.2344679    -0.5226331     0.3304445
C           3.4501298     0.1273408    -0.3708833
C           3.6875945     1.5549397     0.1445991
H           4.4631040     2.0489316    -0.4495156
H           4.0126742     1.5448020     1.1899948
H           2.7638526     2.1352308     0.0894795
H           3.1268266     0.1901092    -1.4215096
O           1.3836898     0.1558849     0.8822058
C           0.8096026    -2.3320662    -0.5070770
H           0.7067067    -3.4150254    -0.3932869
H           0.7668895    -2.0813124    -1.5773153
H          -0.0262473    -1.8476970     0.0007413
C           7.0728709    -2.2579473    -0.2474926
H           7.9837490    -2.8494200    -0.2138798
C           6.4453704    -1.8670518     0.9381839
H           6.8654338    -2.1558751     1.8980133
C           5.2771084    -1.1076650     0.8962823
H           4.7941051    -0.8132023     1.8251826
C           4.7119446    -0.7231091    -0.3303759
C           5.3493130    -1.1265378    -1.5112016
H           4.9278660    -0.8357818    -2.4714105
C           6.5210437    -1.8861490    -1.4732546
H           7.0004551    -2.1851803    -2.4017097
25
178_C10H13NO_10-0-2-3 (-105,) energy =    -518.8678186
N           2.0348839    -1.9331457     0.2188084
H           2.8605773    -2.3634460    -0.1925482
C           2.2739166    -0.5672866     0.4599959
C           3.4397131     0.0765950    -0.3237108
C           3.6788354     1.5265602     0.1220848
H           4.4339257     1.9994344    -0.5141105
H           4.0312888     1.5638348     1.1577528
H           2.7505025     2.1000291     0.0677033
H           3.0704162     0.0878261    -1.3612595
O           1.4875513     0.1077790     1.0979750
C           0.8630895    -2.2458679    -0.6113445
H           0.7118086    -3.3289039    -0.6263837
H           0.9655495    -1.8887911    -1.6479376
H          -0.0198601    -1.7813533    -0.1669572
C           7.0932577    -2.2640059    -0.2509001
H           8.0113794    -2.8447617    -0.2304658
C           6.5019619    -1.8420569     0.9425112
H           6.9578015    -2.0959340     1.8958322
C           5.3242240    -1.0963245     0.9167109
H           4.8703607    -0.7757628     1.8518050
C           4.7136161    -0.7576794    -0.3014536
C           5.3150050    -1.1915257    -1.4902129
H           4.8573954    -0.9362264    -2.4438941
C           6.4960397    -1.9368826    -1.4682375
H           6.9472313    -2.2604000    -2.4025844
25
178_C10H13NO_10-0-2-3 (-90,) energy =    -518.8666702
N           1.9416211    -1.8536537    -0.2223436
H           1.6946173    -2.4489992     0.5708286
C           2.5240820    -0.6977079     0.3665148
C           3.5279336     0.0385232    -0.5245621
C           3.6274756     1.5265917    -0.1512601
H           4.3847801     2.0246998    -0.7647333
H           3.8984265     1.6425018     0.9012682
H           2.6676112     2.0325490    -0.3065640
H           3.1925374    -0.0535931    -1.5648434
O           2.4036512    -0.4517660     1.5539292
C           0.6950920    -1.6168378    -0.9774792
H          -0.1026268    -1.1789086    -0.3607954
H           0.3450156    -2.5676601    -1.3888506
H           0.8912745    -0.9426227    -1.8178549
C           7.3850289    -1.9347733    -0.2559218
H           8.3557777    -2.4190894    -0.1916635
C           6.7612924    -1.4551955     0.8978105
H           7.2441360    -1.5679770     1.8650997
C           5.5155209    -0.8329453     0.8176834
H           5.0275592    -0.4767029     1.7204275
C           4.8738556    -0.6793603    -0.4193356
C           5.5040006    -1.1702855    -1.5687631
H           5.0137387    -1.0634797    -2.5336851
C           6.7516829    -1.7911321    -1.4909143
H           7.2259904    -2.1638382    -2.3951610
25
178_C10H13NO_10-0-2-3 (-75,) energy =    -518.8719766
N           1.8640557    -1.8196623    -0.0966983
H           1.4978594    -2.3415280     0.6999970
C           2.5217642    -0.7003298     0.4424550
C           3.5034983     0.0107081    -0.4969767
C           3.6046631     1.5079239    -0.1580816
H           4.3452449     1.9955514    -0.7996989
H           3.9001525     1.6449638     0.8851900
H           2.6393104     2.0073024    -0.3012304
H           3.1476567    -0.0982400    -1.5281739
O           2.4866757    -0.4592481     1.6392737
C           0.7735418    -1.6110575    -1.0622661
H          -0.0835256    -1.0768817    -0.6284583
H           0.4335977    -2.5836930    -1.4289167
H           1.1357589    -1.0406544    -1.9225676
C           7.3863030    -1.9203292    -0.2957781
H           8.3634337    -2.3938882    -0.2501164
C           6.7766598    -1.4503613     0.8694941
H           7.2775296    -1.5602284     1.8279309
C           5.5229022    -0.8418445     0.8131145
H           5.0447983    -0.4942765     1.7241001
C           4.8577934    -0.6934198    -0.4122318
C           5.4742849    -1.1735083    -1.5738014
H           4.9686026    -1.0692183    -2.5312891
C           6.7301456    -1.7804305    -1.5190126
H           7.1929691    -2.1451300    -2.4324347
25
178_C10H13NO_10-0-2-3 (-60,) energy =    -518.8761707
N           1.7643606    -1.9966507     0.2019908
H           1.3234981    -2.4365326     1.0080938
C           2.4625317    -0.8864691     0.6733223
C           3.4013841    -0.1840263    -0.3173593
C           3.5088774     1.3153690     0.0132048
H           4.2121136     1.8053582    -0.6674705
H           3.8565960     1.4558576     1.0395254
H           2.5340113     1.8077024    -0.0810509
H           3.0039960    -0.2898391    -1.3328389
O           2.4796546    -0.6200581     1.8676159
C           0.8331546    -1.9195916    -0.9281834
H           0.4597130    -2.9248571    -1.1418750
H           1.3465596    -1.5631694    -1.8246035
H          -0.0252387    -1.2613999    -0.7323280
C           7.3056446    -2.0813346    -0.2883765
H           8.2878802    -2.5464253    -0.2851320
C           6.7299613    -1.6457142     0.9072350
H           7.2625440    -1.7739089     1.8461212
C           5.4698723    -1.0479191     0.9067750
H           5.0179203    -0.7258962     1.8401586
C           4.7636998    -0.8765900    -0.2924207
C           5.3472851    -1.3214320    -1.4847311
H           4.8104790    -1.1965198    -2.4228329
C           6.6095864    -1.9176537    -1.4862584
H           7.0458905    -2.2548806    -2.4230377
25
178_C10H13NO_10-0-2-3 (-45,) energy =    -518.8793662
N           1.7776363    -1.9100090     0.3416022
H           1.2250411    -2.2617678     1.1187748
C           2.4072222    -0.7423275     0.7374659
C           3.3538750    -0.0773642    -0.2741420
C           3.5389864     1.4113764     0.0663456
H           4.2356426     1.8760691    -0.6386015
H           3.9315300     1.5273153     1.0791340
H           2.5832617     1.9447725     0.0157899
H           2.9189447    -0.1486517    -1.2778570
O           2.3418934    -0.3642341     1.9008524
C           1.1415934    -2.1079811    -0.9600532
H           0.7093385    -3.1117946    -0.9809763
H           1.8817066    -2.0566450    -1.7627341
H           0.3425107    -1.3820899    -1.1673682
C           7.1660053    -2.1497284    -0.3616169
H           8.1252667    -2.6599224    -0.3850292
C           6.6141190    -1.7453148     0.8562702
H           7.1427641    -1.9423260     1.7853831
C           5.3834296    -1.0906273     0.8893565
H           4.9517057    -0.7883940     1.8394473
C           4.6827503    -0.8297134    -0.2969958
C           5.2433276    -1.2411810    -1.5120644
H           4.7133860    -1.0417210    -2.4414179
C           6.4763911    -1.8955438    -1.5472400
H           6.8955280    -2.2060594    -2.5009448
25
178_C10H13NO_10-0-2-3 (-30,) energy =    -518.8818700
N           1.7452708    -1.7739205     0.4060398
H           1.1098198    -2.0781706     1.1357251
C           2.3471606    -0.5844214     0.7488781
C           3.3172880     0.0296995    -0.2750746
C           3.5779751     1.5072468     0.0623012
H           4.2728940     1.9417628    -0.6634852
H           4.0059994     1.6038182     1.0626914
H           2.6453234     2.0807690     0.0434548
H           2.8575153    -0.0184885    -1.2702395
O           2.2032490    -0.1117316     1.8707391
C           1.4188915    -2.2109633    -0.9457257
H           0.9690132    -3.2053111    -0.8857927
H           2.3255863    -2.2977255    -1.5506922
H           0.7112462    -1.5432946    -1.4577095
C           7.0336485    -2.2056700    -0.4237360
H           7.9694833    -2.7568751    -0.4606155
C           6.4905900    -1.8234452     0.8055001
H           7.0030510    -2.0783157     1.7295619
C           5.2898514    -1.1167066     0.8552652
H           4.8668800    -0.8281708     1.8139898
C           4.6100916    -0.7802451    -0.3244903
C           5.1626230    -1.1687501    -1.5511246
H           4.6511964    -0.9075554    -2.4756601
C           6.3660217    -1.8758601    -1.6031400
H           6.7794022    -2.1674799    -2.5652557
25
178_C10H13NO_10-0-2-3 (-15,) energy =    -518.8831634
N           1.4458474    -1.5057077     0.0044836
H           0.6545457    -1.6997662     0.6057794
C           2.1657775    -0.4170484     0.4210764
C           3.3708359    -0.0008351    -0.4396643
C           3.7149884     1.4761865    -0.1824831
H           4.5828539     1.7703624    -0.7815009
H           3.9418912     1.6384355     0.8735934
H           2.8712081     2.1232104    -0.4448991
H           3.1067919    -0.1130528    -1.4984566
O           1.8959391     0.1475517     1.4766385
C           1.4810767    -2.1494950    -1.2992757
H           0.8774720    -3.0593266    -1.2498857
H           2.5016529    -2.4435382    -1.5606398
H           1.0775341    -1.5156623    -2.1015518
C           6.7985776    -2.5427911     0.3530058
H           7.6627001    -3.1710383     0.5519509
C           6.0609906    -2.0056780     1.4109195
H           6.3493418    -2.2163318     2.4375521
C           4.9515246    -1.1997009     1.1583043
H           4.3755972    -0.7895636     1.9835332
C           4.5596755    -0.9170827    -0.1585742
C           5.3054127    -1.4615431    -1.2118136
H           5.0184874    -1.2449921    -2.2391054
C           6.4176502    -2.2680385    -0.9604723
H           6.9841948    -2.6802086    -1.7915800
25
178_C10H13NO_10-0-2-3 (0,) energy =    -518.8835379
N           1.3578014    -1.3946069    -0.0639238
H           0.5969855    -1.6297947     0.5603402
C           2.1599185    -0.3966770     0.4160913
C           3.3629519     0.0141243    -0.4491353
C           3.7081994     1.4919723    -0.1948387
H           4.5808110     1.7829535    -0.7885203
H           3.9273381     1.6560778     0.8625614
H           2.8675089     2.1396531    -0.4662455
H           3.0977494    -0.1014565    -1.5068961
O           1.9360245     0.1226691     1.5057213
C           1.4899499    -2.1364343    -1.3077169
H           0.8112252    -2.9920244    -1.2708637
H           2.5068630    -2.5198660    -1.4380748
H           1.2247310    -1.5336054    -2.1867575
C           6.7936719    -2.5243864     0.3469099
H           7.6587362    -3.1514022     0.5457497
C           6.0583563    -1.9834024     1.4042734
H           6.3494209    -2.1899080     2.4309955
C           4.9477018    -1.1787089     1.1516018
H           4.3726904    -0.7657420     1.9757460
C           4.5528359    -0.9010150    -0.1656124
C           5.2958561    -1.4501617    -1.2186885
H           5.0061936    -1.2391450    -2.2463321
C           6.4089372    -2.2550776    -0.9666867
H           6.9733301    -2.6706503    -1.7975557
25
178_C10H13NO_10-0-2-3 (15,) energy =    -518.8832415
N           1.2873193    -1.2648074    -0.1221693
H           0.5677043    -1.5387620     0.5355897
C           2.1519855    -0.3429443     0.4077037
C           3.3592266     0.0629364    -0.4522316
C           3.7133680     1.5376390    -0.1885803
H           4.5872728     1.8271500    -0.7810873
H           3.9347314     1.6933038     0.8696744
H           2.8761322     2.1916018    -0.4556345
H           3.0945763    -0.0456632    -1.5105531
O           1.9515247     0.1438606     1.5162338
C           1.5166594    -2.1349461    -1.2679932
H           0.6881576    -2.8445173    -1.3275410
H           2.4515300    -2.7013294    -1.1833157
H           1.5356273    -1.5696670    -2.2070538
C           6.7762003    -2.4981402     0.3335497
H           7.6382608    -3.1301629     0.5295563
C           6.0446036    -1.9574642     1.3934303
H           6.3352503    -2.1692075     2.4192192
C           4.9379626    -1.1458238     1.1445376
H           4.3664260    -0.7329027     1.9709458
C           4.5434015    -0.8607834    -0.1713880
C           5.2822253    -1.4111337    -1.2267999
H           4.9907208    -1.1968472    -2.2531315
C           6.3915079    -2.2222309    -0.9788735
H           6.9526462    -2.6381263    -1.8117985
25
178_C10H13NO_10-0-2-3 (30,) energy =    -518.8823710
N           1.2711689    -1.1790954    -0.2189399
H           0.5477628    -1.4230195     0.4502311
C           2.1586962    -0.2872928     0.3420465
C           3.3806563     0.1185569    -0.4962685
C           3.7512170     1.5828475    -0.1995271
H           4.6357637     1.8706872    -0.7768607
H           3.9626795     1.7164249     0.8636904
H           2.9260736     2.2528323    -0.4640714
H           3.1217067     0.0364590    -1.5581956
O           1.9369588     0.2051675     1.4429006
C           1.5982989    -2.2233010    -1.1838136
H           0.6666821    -2.6824326    -1.5256931
H           2.2457657    -3.0057821    -0.7663627
H           2.0960156    -1.7978637    -2.0586292
C           6.7560969    -2.5022805     0.2700660
H           7.6075345    -3.1496428     0.4623054
C           6.0268311    -1.9654456     1.3333732
H           6.3085400    -2.1953083     2.3577434
C           4.9339310    -1.1336601     1.0893583
H           4.3645387    -0.7226935     1.9183927
C           4.5511674    -0.8252757    -0.2246460
C           5.2873587    -1.3721848    -1.2832682
H           5.0044373    -1.1404335    -2.3082258
C           6.3832159    -2.2025496    -1.0407110
H           6.9430486    -2.6151492    -1.8761608
25
178_C10H13NO_10-0-2-3 (45,) energy =    -518.8804287
N           1.1516248    -1.1615678    -0.2655542
H           0.3990111    -1.3651584     0.3880117
C           2.0877405    -0.3661310     0.3741909
C           3.3080140     0.0755760    -0.4483751
C           3.6341008     1.5472419    -0.1311945
H           4.5126991     1.8674322    -0.7004905
H           3.8374261     1.6722248     0.9347500
H           2.7914124     2.1965711    -0.3923594
H           3.0536092    -0.0011271    -1.5115454
O           1.8797327     0.0598969     1.5036176
C           1.5003785    -2.3062744    -1.1075831
H           0.5962221    -2.6635689    -1.6086537
H           1.9409803    -3.1351241    -0.5371809
H           2.2133965    -2.0075896    -1.8789950
C           6.7573993    -2.4553351     0.2918671
H           7.6267190    -3.0809171     0.4760880
C           6.0044085    -1.9644230     1.3606950
H           6.2856723    -2.2086555     2.3818668
C           4.8883756    -1.1607196     1.1266794
H           4.3014456    -0.7859426     1.9603849
C           4.5055619    -0.8351073    -0.1830614
C           5.2662314    -1.3354712    -1.2475772
H           4.9841275    -1.0892370    -2.2694804
C           6.3849465    -2.1375241    -1.0147745
H           6.9631225    -2.5141034    -1.8547181
25
178_C10H13NO_10-0-2-3 (60,) energy =    -518.8770067
N           1.0862879    -1.0564845    -0.3493625
H           0.3049715    -1.1856084     0.2925123
C           2.1062090    -0.4338654     0.3692992
C           3.3252965     0.0297692    -0.4416424
C           3.6004234     1.5132185    -0.1223224
H           4.4715339     1.8616419    -0.6864101
H           3.7943942     1.6428274     0.9450518
H           2.7388524     2.1348395    -0.3901882
H           3.0790954    -0.0546644    -1.5056796
O           1.9495184    -0.1195990     1.5410350
C           1.3456329    -2.2882513    -1.1056801
H           0.4612299    -2.5346276    -1.7000761
H           1.5861676    -3.1401712    -0.4553951
H           2.1817668    -2.1380582    -1.7932665
C           6.8476343    -2.3969292     0.3007522
H           7.7346799    -2.9975363     0.4837428
C           6.0875962    -1.9196986     1.3708236
H           6.3813350    -2.1501801     2.3917145
C           4.9487506    -1.1478176     1.1394640
H           4.3548911    -0.7855727     1.9732929
C           4.5497161    -0.8415773    -0.1700221
C           5.3175618    -1.3278929    -1.2360096
H           5.0222294    -1.0965145    -2.2576578
C           6.4590620    -2.0979152    -1.0055083
H           7.0419456    -2.4643066    -1.8467153
25
178_C10H13NO_10-0-2-3 (75,) energy =    -518.8721062
N           1.0340374    -0.9124298    -0.3947920
H           0.2498109    -0.9477487     0.2580154
C           2.1647034    -0.5942284     0.3781132
C           3.3820583    -0.0972564    -0.4132813
C           3.5608372     1.4043079    -0.0940225
H           4.4047866     1.8072370    -0.6629751
H           3.7547353     1.5461225     0.9723510
H           2.6594357     1.9677865    -0.3596876
H           3.1541645    -0.1895625    -1.4806899
O           2.0933388    -0.4934273     1.5929165
C           1.0524756    -2.1665652    -1.1680596
H           0.1525286    -2.2181273    -1.7873130
H           1.0965354    -3.0569242    -0.5263889
H           1.9202662    -2.1809893    -1.8341864
C           7.0281460    -2.3267054     0.3387236
H           7.9461969    -2.8788225     0.5217859
C           6.2766196    -1.8366976     1.4090960
H           6.6075023    -2.0093547     2.4300965
C           5.0987905    -1.1254244     1.1792832
H           4.5093150    -0.7601268     2.0138474
C           4.6496462    -0.8955754    -0.1298199
C           5.4095061    -1.3948340    -1.1956158
H           5.0761600    -1.2237339    -2.2174900
C           6.5905359    -2.1032933    -0.9668924
H           7.1653058    -2.4808094    -1.8087985
25
178_C10H13NO_10-0-2-3 (90,) energy =    -518.8662861
N           1.0080797    -0.7998009    -0.4621340
H           0.2510721    -0.7241700     0.2208304
C           2.1953846    -0.7486170     0.3188211
C           3.4189442    -0.2140891    -0.4320128
C           3.5051600     1.2984776    -0.1094559
H           4.3362106     1.7472185    -0.6626705
H           3.6742753     1.4523448     0.9601719
H           2.5784929     1.8081376    -0.3945884
H           3.2185612    -0.3092713    -1.5052343
O           2.1628159    -0.8703356     1.5305389
C           0.7870094    -2.0646005    -1.1938492
H          -0.1477817    -1.9888915    -1.7560453
H           0.7359470    -2.9368993    -0.5277651
H           1.5981640    -2.2255125    -1.9115713
C           7.1656906    -2.2396157     0.3823850
H           8.1098812    -2.7401079     0.5804313
C           6.3827583    -1.7734844     1.4406569
H           6.7147607    -1.9132117     2.4663450
C           5.1712307    -1.1275726     1.1934585
H           4.5587766    -0.7848887     2.0200700
C           4.7186739    -0.9420504    -0.1215588
C           5.5113783    -1.4168024    -1.1747404
H           5.1750879    -1.2797736    -2.2007249
C           6.7261669    -2.0591594    -0.9292281
H           7.3251306    -2.4187846    -1.7620581
25
178_C10H13NO_10-0-2-3 (105,) energy =    -518.8677697
N           1.4338719    -1.2457328    -0.7919498
H           1.7696020    -1.1766604    -1.7506982
C           2.0709648    -0.2727022     0.0002908
C           3.3692451     0.3382958    -0.5619879
C           3.6850550     1.6886025     0.0988310
H           4.6298359     2.0891201    -0.2822964
H           3.7609715     1.5776002     1.1832073
H           2.8896906     2.4133737    -0.1056503
H           3.2455322     0.4980613    -1.6427475
O           1.7198959    -0.0642263     1.1486292
C           1.5658822    -2.6475543    -0.3572122
H           2.5926672    -3.0222771    -0.4588833
H           0.8915331    -3.2719917    -0.9505655
H           1.2642464    -2.7174746     0.6901558
C           6.6030875    -2.5103076    -0.0397525
H           7.4188057    -3.2160149     0.0920844
C           5.8611809    -2.0790198     1.0625215
H           6.0962535    -2.4511882     2.0562481
C           4.8141123    -1.1730199     0.8954785
H           4.2303472    -0.8521831     1.7537620
C           4.4930260    -0.6800150    -0.3783760
C           5.2398916    -1.1231562    -1.4772326
H           5.0060993    -0.7471517    -2.4712192
C           6.2888658    -2.0299920    -1.3113209
H           6.8594476    -2.3585910    -2.1760778
25
178_C10H13NO_10-0-2-3 (120,) energy =    -518.8750104
N           1.5236372    -1.2926755    -0.8422158
H           1.9773990    -1.3404339    -1.7502693
C           2.0994775    -0.3078774    -0.0404311
C           3.3880505     0.3349426    -0.5861735
C           3.6689755     1.6834370     0.0927671
H           4.6073339     2.1090402    -0.2767863
H           3.7398310     1.5603039     1.1762196
H           2.8590238     2.3926730    -0.1082751
H           3.2656125     0.5051055    -1.6656645
O           1.7065992    -0.0910874     1.0950813
C           1.3787117    -2.6406696    -0.2782069
H           2.3475975    -3.1480294    -0.1774893
H           0.7222852    -3.2367447    -0.9185783
H           0.9183675    -2.5556621     0.7077190
C           6.6703774    -2.4592968    -0.0755563
H           7.4970371    -3.1525541     0.0542295
C           5.8822903    -2.0929803     1.0180664
H           6.0927604    -2.5028731     2.0024546
C           4.8211692    -1.2025275     0.8545853
H           4.2035504    -0.9287454     1.7055804
C           4.5309358    -0.6621757    -0.4074760
C           5.3246788    -1.0403126    -1.4977019
H           5.1147890    -0.6262955    -2.4819525
C           6.3885507    -1.9301783    -1.3353099
H           6.9954041    -2.2079616    -2.1932117
25
178_C10H13NO_10-0-2-3 (135,) energy =    -518.8810780
N           1.5760349    -1.3382528    -0.8311232
H           2.0755971    -1.4660506    -1.7048550
C           2.1540933    -0.3826714    -0.0130371
C           3.4205023     0.2858461    -0.5766722
C           3.6716048     1.6454755     0.0922762
H           4.5936754     2.0943981    -0.2903971
H           3.7586094     1.5291257     1.1753160
H           2.8402437     2.3312908    -0.1026416
H           3.2800958     0.4464652    -1.6551244
O           1.7664412    -0.1775314     1.1284343
C           1.1442032    -2.6078503    -0.2453929
H           1.9958403    -3.2711255    -0.0415274
H           0.4485404    -3.1117569    -0.9224852
H           0.6304880    -2.3945797     0.6929924
C           6.7845815    -2.4124700    -0.0849888
H           7.6310954    -3.0823156     0.0398730
C           5.9807809    -2.0841947     1.0092994
H           6.1988952    -2.5003544     1.9894283
C           4.8942185    -1.2240144     0.8521134
H           4.2645651    -0.9798325     1.7032598
C           4.5934221    -0.6768138    -0.4044385
C           5.4033773    -1.0159505    -1.4955384
H           5.1858837    -0.5962532    -2.4758103
C           6.4927739    -1.8754981    -1.3391236
H           7.1116198    -2.1238702    -2.1975023
25
178_C10H13NO_10-0-2-3 (150,) energy =    -518.8854035
N           1.5966337    -1.4171901    -0.8069779
H           2.0957862    -1.5982008    -1.6695877
C           2.1949166    -0.5010355     0.0273702
C           3.4336591     0.1972242    -0.5606161
C           3.6431149     1.5734487     0.0899746
H           4.5454749     2.0489799    -0.3072879
H           3.7445417     1.4723581     1.1732590
H           2.7867764     2.2279893    -0.1047593
H           3.2721899     0.3403962    -1.6381188
O           1.8224462    -0.3119087     1.1784706
C           0.8962083    -2.5702667    -0.2522567
H           1.5885462    -3.3855463    -0.0017997
H           0.1538279    -2.9371093    -0.9671023
H           0.3882172    -2.2505276     0.6582910
C           6.9093406    -2.3582974    -0.0834483
H           7.7836055    -2.9922999     0.0375250
C           6.0996883    -2.0602439     1.0152670
H           6.3412778    -2.4645169     1.9949020
C           4.9776027    -1.2462189     0.8632182
H           4.3432872    -1.0266096     1.7175177
C           4.6459627    -0.7157210    -0.3926370
C           5.4622305    -1.0241630    -1.4880112
H           5.2204677    -0.6164900    -2.4677229
C           6.5873577    -1.8375484    -1.3369655
H           7.2101179    -2.0628113    -2.1989296
25
178_C10H13NO_10-0-2-3 (165,) energy =    -518.8876089
N           1.5470216    -1.3920404    -0.6069791
H           1.9655726    -1.5831215    -1.5073255
C           2.2176976    -0.5272526     0.2163818
C           3.4155830     0.1844528    -0.4365402
C           3.6045134     1.5822053     0.1757172
H           4.4761091     2.0756883    -0.2659159
H           3.7495398     1.5077251     1.2561340
H           2.7213796     2.2058054    -0.0008673
H           3.2080434     0.2989265    -1.5091525
O           1.9115764    -0.3535349     1.3908677
C           0.6106178    -2.3736895    -0.0831231
H           1.0953931    -3.3402674     0.1090855
H          -0.2147967    -2.5230835    -0.7861784
H           0.2184050    -1.9870741     0.8582098
C           7.0021845    -2.2278055    -0.0428055
H           7.9044311    -2.8253866     0.0565030
C           6.2154579    -1.9502462     1.0777090
H           6.5030061    -2.3343965     2.0530468
C           5.0576105    -1.1829083     0.9535116
H           4.4408142    -0.9794427     1.8243049
C           4.6662368    -0.6798250    -0.2963469
C           5.4599445    -0.9673704    -1.4136964
H           5.1717768    -0.5811777    -2.3896159
C           6.6208645    -1.7336629    -1.2903795
H           7.2248653    -1.9436469    -2.1694187
25
178_C10H13NO_10-0-2-3 (180,) energy =    -518.8878351
N           1.5943016    -1.4673961    -0.6120555
H           1.8793058    -1.5499043    -1.5770481
C           2.3205609    -0.6562921     0.2123978
C           3.4948563     0.0714243    -0.4659222
C           3.6270112     1.4929444     0.1091481
H           4.4842907     2.0052774    -0.3388986
H           3.7648522     1.4511691     1.1921728
H           2.7237935     2.0796765    -0.0923600
H           3.2837661     0.1515783    -1.5408442
O           2.0702023    -0.5205570     1.4060696
C           0.4504079    -2.2351347    -0.1541096
H           0.6239825    -3.3129587    -0.2590552
H          -0.4543239    -1.9666318    -0.7123360
H           0.3047196    -1.9991462     0.9008148
C           7.1854606    -2.1683552    -0.0227732
H           8.1137452    -2.7224136     0.0884227
C           6.3909264    -1.8967547     1.0936558
H           6.6979229    -2.2422591     2.0775276
C           5.1996179    -1.1851808     0.9552693
H           4.5758520    -0.9883351     1.8222117
C           4.7815726    -0.7334449    -0.3055467
C           5.5834538    -1.0150249    -1.4183882
H           5.2739743    -0.6695896    -2.4030539
C           6.7780115    -1.7249836    -1.2810539
H           7.3869995    -1.9315106    -2.1575121
