25
178_C10H13NO_2-3-20-18 (-165,) energy =    -518.8824158
N           1.5066123    -1.0290143    -1.1632422
H           1.8498326    -0.4826027    -1.9396042
C           2.2015520    -0.9988391     0.0148623
C           3.4345640    -0.0801077     0.0192709
C           3.3215417     0.8320529     1.2568032
H           4.1456758     1.5483013     1.3108439
H           3.3168062     0.2236313     2.1644599
H           2.3864741     1.4020896     1.2234956
H           3.4030253     0.5583622    -0.8774189
O           1.8666701    -1.6436970     1.0011920
C           0.3119747    -1.8327151    -1.3514025
H           0.4584079    -2.5893647    -2.1317337
H          -0.5470611    -1.2078309    -1.6230068
H           0.1065546    -2.3321035    -0.4035102
C           7.1741684    -2.3113966    -0.1642031
H           8.1094767    -2.8623996    -0.2144942
C           7.1657992    -0.9681020     0.2128741
H           8.0971188    -0.4635053     0.4572124
C           5.9631262    -0.2647046     0.2825214
H           5.9856821     0.7813810     0.5731914
C           4.7416346    -0.8813933    -0.0268660
C           4.7663959    -2.2312463    -0.4037549
H           3.8387856    -2.7478199    -0.6294094
C           5.9675016    -2.9390699    -0.4713558
H           5.9552321    -3.9868342    -0.7603043
25
178_C10H13NO_2-3-20-18 (-150,) energy =    -518.8833469
N           1.8567031    -1.8713990    -0.2352542
H           2.5619746    -2.2518360     0.3803615
C           2.1249852    -0.6831031    -0.8572427
C           3.3574094     0.0746278    -0.3233492
C           2.9683998     0.7944633     0.9832385
H           3.7243758     1.5309854     1.2733148
H           2.8412849     0.0896895     1.8124704
H           2.0246802     1.3298226     0.8405228
H           3.5241497     0.8462881    -1.0851340
O           1.4016313    -0.2019999    -1.7214741
C           0.7301362    -2.7096093    -0.6024719
H           0.1776533    -3.0276681     0.2886308
H           1.0492036    -3.6022988    -1.1562827
H           0.0754326    -2.1150639    -1.2410499
C           7.0381084    -2.2487327    -0.2358886
H           7.9639804    -2.8175283    -0.2318022
C           6.8085236    -1.2674699     0.7274107
H           7.5578863    -1.0641512     1.4880960
C           5.6177733    -0.5371545     0.7211651
H           5.4660625     0.2222210     1.4815644
C           4.6254655    -0.7762861    -0.2399100
C           4.8799039    -1.7582766    -1.2131687
H           4.1417867    -1.9483326    -1.9881786
C           6.0673298    -2.4888296    -1.2102216
H           6.2352372    -3.2437289    -1.9740004
25
178_C10H13NO_2-3-20-18 (-135,) energy =    -518.8847635
N           1.9536934    -1.9282263    -0.1974485
H           2.7503790    -2.3186721     0.2858196
C           2.0846506    -0.6836795    -0.7451631
C           3.3539117     0.0977804    -0.3386167
C           3.0208281     0.9381682     0.9078592
H           3.8178019     1.6563620     1.1268689
H           2.8714339     0.3084649     1.7922732
H           2.0998469     1.5001427     0.7287651
H           3.4947562     0.7968131    -1.1723958
O           1.2243361    -0.1650070    -1.4475172
C           0.8071647    -2.7794323    -0.4565701
H           0.3815798    -3.1546600     0.4810071
H           1.0728084    -3.6355886    -1.0899802
H           0.0620227    -2.1742557    -0.9747309
C           7.0005971    -2.2684635    -0.1847779
H           7.9174071    -2.8514135    -0.1645935
C           6.6929878    -1.4028059     0.8629601
H           7.3711710    -1.3050037     1.7067485
C           5.5143317    -0.6514479     0.8356747
H           5.2995641     0.0180222     1.6623139
C           4.6156159    -0.7552914    -0.2340854
C           4.9466810    -1.6260965    -1.2881204
H           4.2748461    -1.7111636    -2.1392964
C           6.1204503    -2.3760629    -1.2647780
H           6.3510157    -3.0412697    -2.0928657
25
178_C10H13NO_2-3-20-18 (-120,) energy =    -518.8858217
N           2.0138364    -1.9736168    -0.1556673
H           2.8779753    -2.3621284     0.1942508
C           2.0201900    -0.6813347    -0.5918969
C           3.3170723     0.1234924    -0.3347489
C           3.0557280     1.0726053     0.8482811
H           3.8927269     1.7641691     0.9911725
H           2.9002086     0.5215963     1.7829318
H           2.1536626     1.6555053     0.6458827
H           3.4084075     0.7465932    -1.2332729
O           1.0463526    -0.1380862    -1.1017601
C           0.8584447    -2.8402106    -0.2965510
H           0.5636755    -3.2607634     0.6719212
H           1.0575049    -3.6650441    -0.9922170
H           0.0414605    -2.2332048    -0.6890851
C           6.9507264    -2.2571679    -0.1584452
H           7.8618340    -2.8486597    -0.1302992
C           6.5640988    -1.5065825     0.9502155
H           7.1744066    -1.5082986     1.8496433
C           5.3938071    -0.7422489     0.9127188
H           5.1167664    -0.1606587     1.7861418
C           4.5848003    -0.7168099    -0.2309580
C           4.9932761    -1.4751953    -1.3430626
H           4.3867867    -1.4610446    -2.2462929
C           6.1583822    -2.2379596    -1.3096584
H           6.4520019    -2.8127429    -2.1841704
25
178_C10H13NO_2-3-20-18 (-105,) energy =    -518.8864720
N           2.0255197    -1.9255784    -0.1718937
H           2.9150534    -2.3366373     0.0721088
C           1.9945402    -0.6011404    -0.4907142
C           3.3261125     0.1788256    -0.3482867
C           3.1531997     1.2070126     0.7845166
H           4.0338121     1.8530017     0.8637534
H           2.9940891     0.7216681     1.7540924
H           2.2771022     1.8248278     0.5741902
H           3.3897403     0.7433682    -1.2871372
O           0.9747035    -0.0148903    -0.8376825
C           0.8489884    -2.7725128    -0.2350700
H           0.6217150    -3.2080794     0.7454001
H           0.9835736    -3.5859975    -0.9582925
H           0.0131294    -2.1468464    -0.5511299
C           6.8825504    -2.3126098    -0.1718993
H           7.7720371    -2.9359695    -0.1404177
C           6.4099514    -1.7014447     0.9887764
H           6.9314267    -1.8453483     1.9315406
C           5.2688500    -0.8952923     0.9478309
H           4.9240455    -0.4218452     1.8618987
C           4.5761395    -0.6856137    -0.2530675
C           5.0681567    -1.3069936    -1.4140303
H           4.5497637    -1.1511071    -2.3579253
C           6.2055382    -2.1115329    -1.3774914
H           6.5673745    -2.5763308    -2.2909359
25
178_C10H13NO_2-3-20-18 (-90,) energy =    -518.8868867
N           2.0770866    -1.9750378    -0.2395220
H           2.9871533    -2.4093559    -0.1893769
C           2.0130281    -0.6180113    -0.3388846
C           3.3645006     0.1433050    -0.3839750
C           3.3082203     1.3068630     0.6223073
H           4.1994711     1.9364264     0.5344729
H           3.2409578     0.9501381     1.6558046
H           2.4193570     1.9089103     0.4231352
H           3.3697156     0.5902315    -1.3877159
O           0.9562737     0.0013857    -0.4043733
C           0.8923274    -2.8121252    -0.2072241
H           0.8505145    -3.4017462     0.7164156
H           0.8665287    -3.4976080    -1.0631105
H           0.0246745    -2.1524624    -0.2512773
C           6.9047632    -2.3650376    -0.1440338
H           7.7906414    -2.9921391    -0.0921494
C           6.3341985    -1.8545733     1.0230107
H           6.7752536    -2.0833011     1.9897521
C           5.1993587    -1.0441293     0.9571308
H           4.7729157    -0.6542347     1.8767123
C           4.6086369    -0.7266251    -0.2760957
C           5.1960347    -1.2481742    -1.4400972
H           4.7586532    -1.0089426    -2.4072401
C           6.3301026    -2.0587037    -1.3787295
H           6.7676890    -2.4444094    -2.2958249
25
178_C10H13NO_2-3-20-18 (-75,) energy =    -518.8874115
N           2.0208816    -1.9888182    -0.3242120
H           2.9096355    -2.4209132    -0.5318761
C           1.9888491    -0.6387767    -0.1349191
C           3.3216550     0.1125542    -0.3938300
C           3.3730280     1.3883346     0.4627489
H           4.2413211     1.9960354     0.1889623
H           3.4418042     1.1547783     1.5302486
H           2.4604995     1.9681446     0.3111956
H           3.2469946     0.4289831    -1.4448244
O           0.9678084    -0.0298576     0.1654685
C           0.8464106    -2.8280160    -0.1770165
H           0.9880054    -3.5731645     0.6152174
H           0.6121315    -3.3503544    -1.1125693
H           0.0114399    -2.1781470     0.0882696
C           6.8878460    -2.3467241    -0.0798588
H           7.7819497    -2.9594020    -0.0029130
C           6.2121846    -1.9401318     1.0735562
H           6.5791051    -2.2375518     2.0524923
C           5.0668169    -1.1509228     0.9766131
H           4.5504509    -0.8466673     1.8832079
C           4.5697134    -0.7496763    -0.2744185
C           5.2586454    -1.1672596    -1.4223931
H           4.8949835    -0.8613293    -2.4012243
C           6.4063729    -1.9582605    -1.3297988
H           6.9247210    -2.2643987    -2.2347396
25
178_C10H13NO_2-3-20-18 (-60,) energy =    -518.8877421
N           1.6279740    -1.4627904    -0.7095842
H           1.9810646    -1.5750091    -1.6490838
C           2.3300468    -0.6678038     0.1515530
C           3.5281688     0.0676042    -0.4773261
C           3.6801731     1.4626888     0.1501495
H           4.5552573     1.9728549    -0.2647344
H           3.7955254     1.3844034     1.2336835
H           2.7925848     2.0739626    -0.0467937
H           3.3350697     0.1895270    -1.5517544
O           2.0444149    -0.5532362     1.3388716
C           0.5470264    -2.3272624    -0.2696945
H           0.8576383    -3.3793350    -0.2288106
H          -0.3147372    -2.2380423    -0.9398715
H           0.2607395    -2.0070315     0.7329065
C           7.1335588    -2.3123587    -0.0649765
H           8.0406277    -2.9018572     0.0386525
C           6.4210062    -1.9119700     1.0681136
H           6.7709299    -2.1932257     2.0580536
C           5.2582553    -1.1534233     0.9380264
H           4.6953877    -0.8619522     1.8199531
C           4.7859502    -0.7837540    -0.3302880
C           5.5065413    -1.1920684    -1.4591855
H           5.1589779    -0.9058967    -2.4501770
C           6.6722207    -1.9503177    -1.3305237
H           7.2185908    -2.2550214    -2.2194966
25
178_C10H13NO_2-3-20-18 (-45,) energy =    -518.8878654
N           1.5985575    -1.4886028    -0.6314659
H           1.9335897    -1.6661935    -1.5675951
C           2.3273000    -0.6503978     0.1644035
C           3.5195775     0.0255840    -0.5334097
C           3.6986126     1.4556089     0.0077299
H           4.5686792     1.9309333    -0.4562263
H           3.8425242     1.4324618     1.0906402
H           2.8127721     2.0655512    -0.2015528
H           3.3066232     0.0861045    -1.6092026
O           2.0627298    -0.4564647     1.3468520
C           0.5107038    -2.3037672    -0.1203966
H           0.8019837    -3.3578258    -0.0252622
H          -0.3635219    -2.2359212    -0.7768698
H           0.2521825    -1.9204047     0.8674752
C           7.1583696    -2.2927145    -0.0527073
H           8.0737390    -2.8663383     0.0661287
C           6.3081224    -2.0902140     1.0365733
H           6.5595082    -2.5085785     2.0078493
C           5.1323094    -1.3546431     0.8873243
H           4.4702150    -1.2046283     1.7350583
C           4.7872962    -0.8076652    -0.3573588
C           5.6444619    -1.0211053    -1.4444315
H           5.3898366    -0.6041126    -2.4170206
C           6.8229255    -1.7546251    -1.2955491
H           7.4753974    -1.9072497    -2.1514970
25
178_C10H13NO_2-3-20-18 (-30,) energy =    -518.8869944
N           1.5580217    -1.4878085    -0.5415755
H           1.8445535    -1.6951912    -1.4874979
C           2.3358077    -0.6432661     0.1992047
C           3.5194068    -0.0246193    -0.5599113
C           3.6988247     1.4415694    -0.1203003
H           4.5592355     1.8890488    -0.6278890
H           3.8602478     1.4882118     0.9593913
H           2.8069568     2.0328701    -0.3564191
H           3.2932332    -0.0366241    -1.6349124
O           2.1151400    -0.4007180     1.3819079
C           0.4523925    -2.2376616     0.0274479
H           0.6899106    -3.3055475     0.1153666
H          -0.4489465    -2.1251712    -0.5851305
H           0.2649274    -1.8348256     1.0236134
C           7.2047141    -2.2624120    -0.0232532
H           8.1306993    -2.8170985     0.1030250
C           6.2444106    -2.2549101     0.9891872
H           6.4203164    -2.8051701     1.9100038
C           5.0528045    -1.5450621     0.8297229
H           4.3152174    -1.5362335     1.6261874
C           4.8036043    -0.8272914    -0.3480408
C           5.7723220    -0.8476240    -1.3614486
H           5.5909455    -0.3029549    -2.2862516
C           6.9648158    -1.5534659    -1.2015698
H           7.7024744    -1.5544298    -2.0000224
25
178_C10H13NO_2-3-20-18 (-15,) energy =    -518.8856599
N           1.5091718    -1.4988802    -0.4794932
H           1.7368424    -1.7221003    -1.4375512
C           2.3495580    -0.6727859     0.2124852
C           3.5186682    -0.1069582    -0.6057041
C           3.6721781     1.3932101    -0.2800907
H           4.5212131     1.8205030    -0.8225497
H           3.8360707     1.5210730     0.7926294
H           2.7683655     1.9478375    -0.5567033
H           3.2829932    -0.2033558    -1.6748954
O           2.1883751    -0.4025027     1.3985174
C           0.3862987    -2.1770210     0.1430114
H           0.5570110    -3.2586580     0.2140525
H          -0.5367629    -2.0013722    -0.4207862
H           0.2780802    -1.7689002     1.1487778
C           7.2578187    -2.2421754    -0.0011644
H           8.1958884    -2.7734843     0.1357247
C           6.2131949    -2.4126810     0.9066030
H           6.3340994    -3.0780932     1.7576216
C           5.0048629    -1.7331896     0.7331952
H           4.2085071    -1.8591331     1.4593773
C           4.8240566    -0.8648734    -0.3506553
C           5.8797228    -0.7084269    -1.2618423
H           5.7522151    -0.0504408    -2.1193714
C           7.0868505    -1.3838423    -1.0894755
H           7.8904427    -1.2451444    -1.8082966
25
178_C10H13NO_2-3-20-18 (0,) energy =    -518.8840812
N           1.4768942    -1.4816946    -0.4084163
H           1.6488184    -1.7249043    -1.3730738
C           2.3771304    -0.6756938     0.2307265
C           3.5266407    -0.1624906    -0.6482554
C           3.6416014     1.3621993    -0.4369477
H           4.4665894     1.7805690    -1.0207738
H           3.8146166     1.5714357     0.6214877
H           2.7169957     1.8665379    -0.7397251
H           3.2783914    -0.3451026    -1.7039709
O           2.2761333    -0.3756938     1.4155725
C           0.3445738    -2.0867330     0.2698715
H           0.4661455    -3.1728119     0.3690733
H          -0.5871106    -1.8837980    -0.2700261
H           0.2888595    -1.6446870     1.2655804
C           7.3016786    -2.2203125     0.0253076
H           8.2468165    -2.7354093     0.1749206
C           6.1912360    -2.5438587     0.8033122
H           6.2663081    -3.3141532     1.5665674
C           4.9748202    -1.8838692     0.6113958
H           4.1298457    -2.1324639     1.2448631
C           4.8495475    -0.8776775    -0.3545250
C           5.9722675    -0.5704608    -1.1391991
H           5.8950360     0.1890900    -1.9139049
C           7.1865558    -1.2281877    -0.9506416
H           8.0413607    -0.9690511    -1.5701805
25
178_C10H13NO_2-3-20-18 (15,) energy =    -518.8826269
N           1.4883541    -1.5052900    -0.3116605
H           1.6133104    -1.7843995    -1.2737437
C           2.4143908    -0.6717210     0.2530165
C           3.5399882    -0.2174385    -0.6901179
C           3.6208951     1.3201444    -0.6022759
H           4.3922514     1.7236905    -1.2636240
H           3.8413867     1.6180693     0.4256568
H           2.6640378     1.7695419    -0.8903854
H           3.2696086    -0.4869597    -1.7225582
O           2.3531049    -0.3020485     1.4196189
C           0.3543784    -2.0346140     0.4246896
H           0.3960780    -3.1286563     0.4898389
H          -0.5930029    -1.7452059    -0.0452799
H           0.3984378    -1.6148192     1.4306204
C           7.3218637    -2.2367094     0.0825277
H           8.2655219    -2.7455314     0.2600500
C           6.1497849    -2.6959361     0.6820171
H           6.1736351    -3.5664684     1.3324952
C           4.9375502    -2.0420111     0.4543493
H           4.0420589    -2.4080395     0.9463465
C           4.8706786    -0.9072524    -0.3654008
C           6.0565426    -0.4644897    -0.9708026
H           6.0382036     0.3975292    -1.6315510
C           7.2691126    -1.1168448    -0.7485124
H           8.1726373    -0.7488364    -1.2280135
25
178_C10H13NO_2-3-20-18 (30,) energy =    -518.8829997
N           1.9157788    -1.2718187    -1.1645290
H           2.4931795    -2.0659801    -0.9248092
C           2.2439707    -0.0609151    -0.6156880
C           3.2509747    -0.1250267     0.5494295
C           2.5522538    -0.7014969     1.7972517
H           3.1519420    -0.5420183     2.6987293
H           2.3628091    -1.7758495     1.6980004
H           1.5923095    -0.1977817     1.9483766
H           3.4622308     0.9326776     0.7513482
O           1.7268365     0.9928383    -0.9657852
C           1.0035130    -1.3960974    -2.2866468
H           0.3067210    -2.2256173    -2.1250168
H           1.5356626    -1.5623715    -3.2330340
H           0.4450810    -0.4620168    -2.3602958
C           7.0244323    -2.0119302    -0.5341415
H           7.9677359    -2.4763119    -0.8085410
C           6.2689004    -1.3313410    -1.4906872
H           6.6227924    -1.2591151    -2.5158416
C           5.0563943    -0.7404310    -1.1375001
H           4.4872186    -0.2060675    -1.8937607
C           4.5709019    -0.8057434     0.1796955
C           5.3393326    -1.4974516     1.1267076
H           4.9963712    -1.5763716     2.1533624
C           6.5543619    -2.0905547     0.7761156
H           7.1303878    -2.6184921     1.5317953
25
178_C10H13NO_2-3-20-18 (45,) energy =    -518.8845635
N           2.0537180    -1.3577704    -1.2383614
H           2.7565134    -2.0632468    -1.0672006
C           2.2002526    -0.1475658    -0.6208840
C           3.2649942    -0.0939521     0.4969531
C           2.6036565    -0.5266995     1.8183423
H           3.2552546    -0.3216832     2.6741269
H           2.3598279    -1.5950146     1.8187572
H           1.6761171     0.0355004     1.9605608
H           3.4832076     0.9781878     0.5799061
O           1.4854121     0.8186565    -0.8603391
C           1.0877993    -1.5801173    -2.2986133
H           0.5325750    -2.5085500    -2.1256624
H           1.5687737    -1.6356829    -3.2840549
H           0.3952434    -0.7373572    -2.2930969
C           6.9942829    -2.0785049    -0.5455070
H           7.9281116    -2.5650235    -0.8138695
C           6.3514977    -1.2361655    -1.4563667
H           6.7833977    -1.0626961    -2.4385982
C           5.1534012    -0.6149486    -1.1103071
H           4.6660350     0.0425309    -1.8266642
C           4.5697865    -0.8095852     0.1545016
C           5.2230540    -1.6636348     1.0528192
H           4.7996286    -1.8453809     2.0353016
C           6.4251689    -2.2889915     0.7089639
H           6.9130354    -2.9433897     1.4267843
25
178_C10H13NO_2-3-20-18 (60,) energy =    -518.8857885
N           2.1001102    -1.3807778    -1.1633978
H           2.9054855    -1.9851333    -1.0843792
C           2.0869519    -0.2292276    -0.4324888
C           3.2286831    -0.0589013     0.5985051
C           2.6583725    -0.3779986     1.9920784
H           3.3848357    -0.1454935     2.7778966
H           2.3777888    -1.4335846     2.0830620
H           1.7622358     0.2252629     2.1583389
H           3.4296821     1.0195382     0.5726940
O           1.1962082     0.6094445    -0.5132107
C           1.0769386    -1.6963332    -2.1428582
H           0.6344711    -2.6792224    -1.9436070
H           1.4818225    -1.6931250    -3.1627344
H           0.3037651    -0.9307237    -2.0652294
C           6.9256760    -2.0602449    -0.5097186
H           7.8511900    -2.5520100    -0.7967024
C           6.3721916    -1.0687554    -1.3247163
H           6.8662398    -0.7842020    -2.2500919
C           5.1866531    -0.4393526    -0.9522177
H           4.7654353     0.3335832    -1.5916991
C           4.5254843    -0.7766111     0.2426890
C           5.0902585    -1.7767713     1.0450864
H           4.6078741    -2.0642168     1.9738216
C           6.2802903    -2.4107766     0.6745517
H           6.7005286    -3.1796634     1.3177239
25
178_C10H13NO_2-3-20-18 (75,) energy =    -518.8864940
N           2.1551656    -1.2968898    -1.1354198
H           3.0069674    -1.8392241    -1.1443779
C           2.0871186    -0.2167149    -0.3077435
C           3.3023855     0.0229806     0.6239706
C           2.8342135    -0.1861907     2.0758948
H           3.6312592     0.0653149     2.7833627
H           2.5257761    -1.2216529     2.2590044
H           1.9720532     0.4565085     2.2683983
H           3.5047539     1.0947690     0.5033644
O           1.1136621     0.5268981    -0.2482318
C           1.0802411    -1.6554154    -2.0417916
H           0.6878426    -2.6543921    -1.8161412
H           1.4190294    -1.6382415    -3.0846889
H           0.2844117    -0.9208683    -1.9109677
C           6.9090137    -2.0786086    -0.5822905
H           7.8114600    -2.5968520    -0.8949199
C           6.4812770    -0.9366426    -1.2643270
H           7.0498676    -0.5602839    -2.1107446
C           5.3258447    -0.2722491    -0.8572365
H           5.0011013     0.6177918    -1.3923399
C           4.5710764    -0.7252225     0.2387137
C           5.0117331    -1.8751368     0.9095008
H           4.4559294    -2.2518226     1.7626465
C           6.1699944    -2.5444555     0.5044717
H           6.4943863    -3.4299862     1.0449003
25
178_C10H13NO_2-3-20-18 (90,) energy =    -518.8869249
N           2.1676662    -1.2694542    -1.2092123
H           3.0887196    -1.6527637    -1.3640808
C           2.0044741    -0.3665356    -0.2025534
C           3.2739650     0.0175748     0.6038188
C           2.9363337    -0.0168806     2.1050903
H           3.7737026     0.3659464     2.6972516
H           2.7090075    -1.0316182     2.4492735
H           2.0530208     0.5982931     2.2877573
H           3.4336444     1.0718069     0.3373685
O           0.9252232     0.1505410     0.0668076
C           1.0721198    -1.6980830    -2.0587002
H           0.9221616    -2.7823599    -1.9926053
H           1.2545535    -1.4319078    -3.1070100
H           0.1713844    -1.1896079    -1.7122751
C           6.8699758    -2.1198594    -0.5701973
H           7.7688215    -2.6510956    -0.8711770
C           6.5379300    -0.9025220    -1.1668704
H           7.1781247    -0.4784510    -1.9360471
C           5.3848204    -0.2223931    -0.7728642
H           5.1360780     0.7283640    -1.2398689
C           4.5406862    -0.7356421     0.2249208
C           4.8856113    -1.9645480     0.8096685
H           4.2520892    -2.3923684     1.5811897
C           6.0383170    -2.6478973     0.4187958
H           6.2871069    -3.5949332     0.8906637
25
178_C10H13NO_2-3-20-18 (105,) energy =    -518.8874345
N           2.1536183    -1.2145905    -1.2542117
H           3.0980843    -1.3983754    -1.5607722
C           1.9756973    -0.5421864    -0.0812263
C           3.2655264     0.0073960     0.5841630
C           3.0524641     0.1391560     2.1011033
H           3.9021708     0.6533231     2.5613632
H           2.9451997    -0.8399753     2.5792190
H           2.1374307     0.7018527     2.2957986
H           3.3613931     1.0254978     0.1784030
O           0.8704517    -0.3223055     0.4019669
C           1.0465886    -1.7470196    -2.0264579
H           1.0675968    -2.8436973    -2.0537174
H           1.0687622    -1.3698174    -3.0556460
H           0.1241482    -1.4215614    -1.5437284
C           6.8810026    -2.1323303    -0.5163466
H           7.7856035    -2.6668056    -0.7933796
C           6.6209849    -0.8681750    -1.0448817
H           7.3231377    -0.4095422    -1.7362321
C           5.4578343    -0.1842434    -0.6829019
H           5.2661988     0.8046205    -1.0944955
C           4.5358982    -0.7435408     0.2137360
C           4.8087440    -2.0207881     0.7308401
H           4.1059390    -2.4838551     1.4184975
C           5.9686184    -2.7066007     0.3725317
H           6.1605244    -3.6925562     0.7878281
25
178_C10H13NO_2-3-20-18 (120,) energy =    -518.8877390
N           1.7493936    -0.7127181    -1.3272495
H           2.3025827    -0.0939009    -1.9025590
C           2.1509266    -0.9246584    -0.0387500
C           3.3549714    -0.0755698     0.4096577
C           3.2034346     0.3170898     1.8881039
H           4.0764911     0.8870978     2.2213667
H           3.1020570    -0.5738198     2.5122510
H           2.3077834     0.9304473     2.0358164
H           3.3751661     0.8424451    -0.1931016
O           1.6101619    -1.7353171     0.7061260
C           0.7135708    -1.5068294    -1.9640553
H           1.1338392    -2.2227000    -2.6822245
H          -0.0026035    -0.8618308    -2.4846714
H           0.1976363    -2.0597606    -1.1780613
C           7.0325794    -2.2351637    -0.3923928
H           7.9544680    -2.7750740    -0.5915024
C           6.8066694    -0.9907927    -0.9806462
H           7.5515454    -0.5548767    -1.6415325
C           5.6204738    -0.3006005    -0.7220285
H           5.4542922     0.6728455    -1.1798516
C           4.6484419    -0.8359190     0.1317601
C           4.8809397    -2.0928498     0.7101719
H           4.1200233    -2.5344540     1.3470246
C           6.0639101    -2.7841252     0.4515843
H           6.2281284    -3.7571440     0.9074290
25
178_C10H13NO_2-3-20-18 (135,) energy =    -518.8879084
N           1.6907086    -0.7733740    -1.3113531
H           2.2282906    -0.1901969    -1.9366497
C           2.1369607    -0.9260283    -0.0289057
C           3.3623723    -0.0698001     0.3334890
C           3.2616965     0.3944692     1.7974227
H           4.1493417     0.9719714     2.0745077
H           3.1790217    -0.4691904     2.4616170
H           2.3751509     1.0206087     1.9475060
H           3.3712850     0.8185842    -0.3123684
O           1.6131031    -1.6935547     0.7724917
C           0.6215197    -1.5822688    -1.8693930
H           1.0048431    -2.3347140    -2.5705945
H          -0.1083036    -0.9526126    -2.3898856
H           0.1319410    -2.0926188    -1.0389992
C           7.0683001    -2.2254721    -0.3438812
H           8.0009521    -2.7594776    -0.5052830
C           6.9276411    -0.9090317    -0.7840592
H           7.7505211    -0.4108464    -1.2903705
C           5.7270201    -0.2273688    -0.5765776
H           5.6258901     0.8004391    -0.9201379
C           4.6513769    -0.8459389     0.0730837
C           4.8038439    -2.1686914     0.5143785
H           3.9739809    -2.6604567     1.0134962
C           6.0019107    -2.8516862     0.3052612
H           6.1019089    -3.8776449     0.6502454
25
178_C10H13NO_2-3-20-18 (150,) energy =    -518.8871491
N           1.6175464    -0.8379256    -1.2790204
H           2.1138034    -0.2608958    -1.9428179
C           2.1236989    -0.9517399    -0.0149459
C           3.3606823    -0.0839784     0.2660205
C           3.2823653     0.4695104     1.7019694
H           4.1722196     1.0646953     1.9298353
H           3.2143554    -0.3557562     2.4147969
H           2.3963943     1.1018579     1.8290464
H           3.3604435     0.7646218    -0.4317102
O           1.6376639    -1.6955780     0.8316312
C           0.5122188    -1.6490194    -1.7574373
H           0.8470511    -2.4036477    -2.4805242
H          -0.2535406    -1.0229283    -2.2286254
H           0.0825279    -2.1554886    -0.8922119
C           7.1052159    -2.2205897    -0.2595499
H           8.0490549    -2.7454683    -0.3808983
C           7.0219043    -0.8528670    -0.5240248
H           7.9013182    -0.3045108    -0.8521579
C           5.8066544    -0.1847056    -0.3699261
H           5.7501490     0.8817893    -0.5800603
C           4.6550248    -0.8671273     0.0457054
C           4.7525518    -2.2382374     0.3220542
H           3.8750749    -2.7777365     0.6648824
C           5.9668285    -2.9081105     0.1644987
H           6.0226916    -3.9725033     0.3780225
25
178_C10H13NO_2-3-20-18 (165,) energy =    -518.8857496
N           1.5574675    -0.8944274    -1.2635289
H           1.9998458    -0.3170302    -1.9638686
C           2.1359766    -0.9745369    -0.0279934
C           3.3741008    -0.0872743     0.1650747
C           3.2963042     0.5784767     1.5542465
H           4.1818445     1.1950554     1.7362291
H           3.2347680    -0.1910308     2.3275127
H           2.4071692     1.2142819     1.6329327
H           3.3641390     0.7055427    -0.5963471
O           1.7055493    -1.7021147     0.8614385
C           0.4193133    -1.7078444    -1.6523226
H           0.6971007    -2.4572833    -2.4041505
H          -0.3864669    -1.0844192    -2.0559459
H           0.0652367    -2.2193530    -0.7563159
C           7.1473259    -2.2146028    -0.2056342
H           8.0981634    -2.7339958    -0.2903463
C           7.0978448    -0.8206300    -0.2744399
H           8.0108311    -0.2470795    -0.4128984
C           5.8751470    -0.1599272    -0.1668536
H           5.8471193     0.9264917    -0.2260797
C           4.6781934    -0.8722634     0.0032600
C           4.7419721    -2.2688529     0.0878466
H           3.8348849    -2.8392346     0.2589269
C           5.9662316    -2.9328183    -0.0222412
H           5.9930549    -4.0175961     0.0421451
25
178_C10H13NO_2-3-20-18 (180,) energy =    -518.8839258
N           1.5143604    -0.9482180    -1.2076597
H           1.9029306    -0.3794712    -1.9457883
C           2.1650965    -0.9884265    -0.0061149
C           3.4007599    -0.0813710     0.0921629
C           3.3077663     0.7001697     1.4193849
H           4.1735445     1.3541418     1.5560091
H           3.2587665    -0.0031334     2.2541365
H           2.4040737     1.3197335     1.4401370
H           3.3776815     0.6432754    -0.7353050
O           1.7926119    -1.6901190     0.9279639
C           0.3471326    -1.7618387    -1.4973656
H           0.5701697    -2.5375838    -2.2407094
H          -0.4773567    -1.1432955    -1.8695125
H           0.0463927    -2.2411020    -0.5647294
C           7.1738249    -2.2382413    -0.1666220
H           8.1219126    -2.7658945    -0.2273964
C           7.1479519    -0.8497835    -0.0210240
H           8.0772695    -0.2882766     0.0313897
C           5.9295865    -0.1775311     0.0600385
H           5.9282147     0.9049774     0.1642723
C           4.7108226    -0.8700881    -0.0127522
C           4.7511969    -2.2635312    -0.1472638
H           3.8276808    -2.8326255    -0.1638240
C           5.9709224    -2.9400178    -0.2273397
H           5.9755680    -4.0220847    -0.3304673
