25
178_C10H13NO_0-2-3-20 (-165,) energy =    -518.8834407
N           1.3512687    -0.8011983    -0.2314684
H           1.2577889     0.1282490    -0.6149726
C           2.6096473    -1.3170691    -0.0620967
C           3.7385049    -0.2968528    -0.3330637
C           3.7604460     0.7625183     0.7989731
H           4.5402902     1.5051515     0.6028912
H           3.9767244     0.2919321     1.7634584
H           2.8007338     1.2834687     0.8865064
H           3.4929047     0.2238992    -1.2690213
O           2.8022367    -2.4615906     0.3265945
C           0.1469506    -1.5830361    -0.0158713
H          -0.3899556    -1.7656009    -0.9551876
H          -0.5287267    -1.0783304     0.6844700
H           0.4542645    -2.5402854     0.4070608
C           7.6846278    -2.0179208    -0.8198020
H           8.6806184    -2.4359588    -0.9405575
C           6.9445522    -2.2863069     0.3340073
H           7.3622348    -2.9190066     1.1129951
C           5.6664362    -1.7526352     0.4941201
H           5.0923605    -1.9868592     1.3833886
C           5.1033950    -0.9397659    -0.5006960
C           5.8537089    -0.6808617    -1.6540318
H           5.4311579    -0.0538791    -2.4369749
C           7.1344931    -1.2125517    -1.8163709
H           7.6980475    -0.9976614    -2.7207056
25
178_C10H13NO_0-2-3-20 (-150,) energy =    -518.8847379
N           1.3744552    -0.8488465    -0.3660589
H           1.3123909    -0.0188892    -0.9375753
C           2.6088060    -1.2598419     0.0615130
C           3.7410893    -0.2597002    -0.2482700
C           3.7980946     0.7776754     0.9014886
H           4.5733613     1.5236124     0.6993173
H           4.0358613     0.2860696     1.8498185
H           2.8383944     1.2939343     1.0171764
H           3.4804428     0.2785005    -1.1695196
O           2.7728301    -2.2871396     0.7080376
C           0.1637725    -1.6113893    -0.1191361
H          -0.2616462    -2.0045451    -1.0507707
H          -0.5925088    -0.9965629     0.3827033
H           0.4344361    -2.4476515     0.5267473
C           7.6424203    -2.0369806    -0.8882923
H           8.6264460    -2.4694998    -1.0495223
C           6.9428407    -2.2992166     0.2916866
H           7.3807360    -2.9418977     1.0512105
C           5.6806718    -1.7456202     0.5054355
H           5.1351759    -1.9751715     1.4130549
C           5.0925783    -0.9197220    -0.4642853
C           5.8024379    -0.6665401    -1.6448725
H           5.3606657    -0.0283099    -2.4079126
C           7.0671714    -1.2174483    -1.8590262
H           7.5988905    -1.0064092    -2.7833443
25
178_C10H13NO_0-2-3-20 (-135,) energy =    -518.8859755
N           1.4207848    -0.9257527    -0.4434710
H           1.4039158    -0.2361926    -1.1803791
C           2.6049317    -1.1710153     0.1961000
C           3.7410023    -0.1987229    -0.1679761
C           3.8655150     0.8335551     0.9791139
H           4.6552094     1.5573302     0.7536879
H           4.1145023     0.3293648     1.9172109
H           2.9238906     1.3764436     1.1215318
H           3.4620207     0.3457646    -1.0797439
O           2.7231670    -2.0376353     1.0554739
C           0.2197430    -1.7034190    -0.1949733
H          -0.0618900    -2.3000758    -1.0713826
H          -0.6198849    -1.0521953     0.0741335
H           0.4357023    -2.3755838     0.6364736
C           7.5710577    -2.0762284    -0.9530946
H           8.5368939    -2.5339005    -1.1506673
C           6.8905831    -2.3537553     0.2344327
H           7.3248483    -3.0331586     0.9635398
C           5.6521215    -1.7675335     0.4960218
H           5.1168828    -2.0062034     1.4075565
C           5.0687144    -0.8939205    -0.4340618
C           5.7588500    -0.6260484    -1.6234509
H           5.3206709     0.0497585    -2.3555995
C           7.0002910    -1.2087330    -1.8842006
H           7.5172304    -0.9855179    -2.8140674
25
178_C10H13NO_0-2-3-20 (-120,) energy =    -518.8870444
N           1.4946587    -1.1425992    -0.7401089
H           1.6421659    -1.0779451    -1.7365625
C           2.4963719    -0.7359358     0.0958797
C           3.6855719    -0.0525301    -0.5988692
C           3.7645328     1.4079955    -0.1003877
H           4.6096556     1.9234740    -0.5675458
H           3.8971423     1.4281967     0.9845622
H           2.8451505     1.9537737    -0.3426593
H           3.5041783    -0.0317469    -1.6815334
O           2.4276296    -0.8490019     1.3159424
C           0.2982301    -1.8115358    -0.2598840
H           0.2898336    -2.8734505    -0.5360826
H          -0.6016560    -1.3337468    -0.6629229
H           0.2951050    -1.7300292     0.8278051
C           7.4696727    -2.0886593     0.0087968
H           8.4236106    -2.5885783     0.1550561
C           6.6582333    -1.7838905     1.1038602
H           6.9786988    -2.0505709     2.1078231
C           5.4341429    -1.1400291     0.9219285
H           4.7964493    -0.9243377     1.7721387
C           4.9980297    -0.7930675    -0.3655408
C           5.8177137    -1.1075107    -1.4571729
H           5.4942360    -0.8445024    -2.4626194
C           7.0447978    -1.7479299    -1.2753248
H           7.6648008    -1.9814992    -2.1371484
25
178_C10H13NO_0-2-3-20 (-105,) energy =    -518.8877456
N           1.6061866    -1.2073457    -0.7287744
H           1.8419323    -1.2732469    -1.7082377
C           2.4808995    -0.5735927     0.1075529
C           3.6831208     0.0878646    -0.5862076
C           3.8376057     1.5309710    -0.0666092
H           4.7113838     2.0075124    -0.5222108
H           3.9623215     1.5278855     1.0190892
H           2.9499693     2.1284857    -0.3043197
H           3.4913139     0.1303868    -1.6665907
O           2.3167518    -0.5164430     1.3225897
C           0.4531902    -1.9449449    -0.2431328
H           0.5921408    -3.0284900    -0.3476280
H          -0.4520357    -1.6501394    -0.7853421
H           0.3357885    -1.7049922     0.8143835
C           7.3452082    -2.1708911    -0.0158549
H           8.2677009    -2.7281541     0.1242978
C           6.5395087    -1.8560109     1.0807358
H           6.8324784    -2.1713313     2.0789445
C           5.3554344    -1.1397959     0.9058696
H           4.7220290    -0.9110721     1.7570243
C           4.9558429    -0.7275990    -0.3740833
C           5.7687630    -1.0525230    -1.4673896
H           5.4731325    -0.7387713    -2.4668095
C           6.9557818    -1.7664717    -1.2928883
H           7.5727688    -2.0070434    -2.1549538
25
178_C10H13NO_0-2-3-20 (-90,) energy =    -518.8879301
N           1.7267663    -1.2780116    -0.7146892
H           2.0740102    -1.4607409    -1.6452698
C           2.4467947    -0.4400409     0.0888453
C           3.6688402     0.2076197    -0.5861135
C           3.8834216     1.6274546    -0.0348600
H           4.7740031     2.0784352    -0.4839915
H           4.0097487     1.5975369     1.0500030
H           3.0192991     2.2641475    -0.2543501
H           3.4734079     0.2796246    -1.6646163
O           2.1585373    -0.2293469     1.2626979
C           0.6091496    -2.0652936    -0.2253188
H           0.8712982    -3.1267897    -0.1290006
H          -0.2522547    -1.9729542    -0.8958448
H           0.3442434    -1.6778489     0.7592830
C           7.2047696    -2.2528618    -0.0570400
H           8.0946597    -2.8624194     0.0755997
C           6.4105057    -1.9184348     1.0423959
H           6.6799158    -2.2705273     2.0348784
C           5.2685254    -1.1355224     0.8755472
H           4.6451428    -0.8880303     1.7299560
C           4.9005278    -0.6741268    -0.3971834
C           5.7014500    -1.0184252    -1.4930055
H           5.4306535    -0.6654802    -2.4863538
C           6.8466507    -1.8000875    -1.3269861
H           7.4562351    -2.0546988    -2.1902658
25
178_C10H13NO_0-2-3-20 (-75,) energy =    -518.8877572
N           1.8786531    -1.3575277    -0.7307588
H           2.3976044    -1.6859546    -1.5333864
C           2.4255439    -0.3463288     0.0097999
C           3.6871554     0.2859697    -0.6111894
C           3.9434384     1.6757772    -0.0090024
H           4.8435037     2.1175666    -0.4484883
H           4.0762448     1.6079722     1.0734987
H           3.0951133     2.3414763    -0.1974035
H           3.5064873     0.4002337    -1.6888322
O           1.9619614     0.0215890     1.0832697
C           0.7747257    -2.1677332    -0.2475195
H           1.1138414    -3.1467967     0.1159989
H           0.0353751    -2.3216352    -1.0407323
H           0.3108986    -1.6292474     0.5798795
C           7.1042225    -2.3421678    -0.1137251
H           7.9630450    -2.9957333     0.0135234
C           6.3149816    -1.9961093     0.9862225
H           6.5573306    -2.3822706     1.9729446
C           5.2130866    -1.1573401     0.8250854
H           4.5960588    -0.8981068     1.6817021
C           4.8799119    -0.6495461    -0.4399536
C           5.6762466    -1.0050156    -1.5354155
H           5.4342961    -0.6151986    -2.5223736
C           6.7817292    -1.8439680    -1.3759616
H           7.3889130    -2.1063477    -2.2385576
25
178_C10H13NO_0-2-3-20 (-60,) energy =    -518.8875744
N           2.0044886    -1.4262658    -0.6849388
H           2.6710859    -1.8594443    -1.3093335
C           2.3825189    -0.2701370    -0.0592648
C           3.6888368     0.3500523    -0.6054441
C           3.9555886     1.7090102     0.0578732
H           4.8557600     2.1649073    -0.3669635
H           4.0970298     1.5972633     1.1362957
H           3.1080424     2.3830240    -0.0938314
H           3.5322586     0.5142894    -1.6808432
O           1.7311218     0.2466930     0.8402827
C           0.8580440    -2.2057718    -0.2538998
H           1.1572705    -3.0874928     0.3283339
H           0.2714806    -2.5362444    -1.1178944
H           0.2422121    -1.5633089     0.3767496
C           7.0409056    -2.3705321    -0.1641671
H           7.8826098    -3.0483295    -0.0504302
C           6.2807070    -2.0006414     0.9488914
H           6.5288725    -2.3923111     1.9319567
C           5.2011823    -1.1310584     0.8044241
H           4.6100735    -0.8533040     1.6740016
C           4.8600634    -0.6130539    -0.4550051
C           5.6281379    -0.9930064    -1.5626998
H           5.3820395    -0.5956986    -2.5455466
C           6.7113841    -1.8643845    -1.4210029
H           7.2963674    -2.1440680    -2.2933781
25
178_C10H13NO_0-2-3-20 (-45,) energy =    -518.8876020
N           2.0950274    -1.4829663    -0.5562386
H           2.8508507    -1.9823627    -1.0038919
C           2.3468236    -0.2196586    -0.1004894
C           3.6980461     0.3784240    -0.5643416
C           3.9698965     1.7045533     0.1616911
H           4.8734382     2.1754797    -0.2387776
H           4.1109774     1.5459042     1.2351856
H           3.1231784     2.3837633     0.0388132
H           3.5687771     0.5977181    -1.6342499
O           1.5462253     0.4187727     0.5724363
C           0.8856634    -2.2095786    -0.2159234
H           1.0751056    -2.9900517     0.5327837
H           0.4523409    -2.6756666    -1.1076949
H           0.1761002    -1.4920226     0.1981391
C           7.0096091    -2.4047633    -0.2030025
H           7.8414245    -3.0977661    -0.1102498
C           6.2864043    -2.0185115     0.9290646
H           6.5538550    -2.4126031     1.9060712
C           5.2198159    -1.1292256     0.8113995
H           4.6606581    -0.8396090     1.6980415
C           4.8537549    -0.6049684    -0.4390770
C           5.5855115    -1.0030768    -1.5655222
H           5.3205970    -0.6034848    -2.5423859
C           6.6555033    -1.8948631    -1.4514358
H           7.2112410    -2.1866827    -2.3387778
25
178_C10H13NO_0-2-3-20 (-30,) energy =    -518.8876027
N           2.1532022    -1.5573481    -0.3876021
H           2.9567286    -2.0924288    -0.6841397
C           2.3195364    -0.2241932    -0.1483983
C           3.7076689     0.3530166    -0.5272505
C           3.9689862     1.6483026     0.2596237
H           4.8781005     2.1367558    -0.1053415
H           4.0958294     1.4453650     1.3281100
H           3.1209894     2.3272428     0.1493631
H           3.6107747     0.6248823    -1.5888425
O           1.4222691     0.4945292     0.2774276
C           0.9014954    -2.2479186    -0.1395407
H           1.0091656    -3.0000488     0.6519424
H           0.5385010    -2.7435290    -1.0477645
H           0.1729782    -1.5003032     0.1769972
C           6.9977562    -2.4623514    -0.2170071
H           7.8249423    -3.1625890    -0.1383227
C           6.2882538    -2.0804366     0.9248803
H           6.5617329    -2.4848238     1.8959892
C           5.2281398    -1.1808699     0.8248509
H           4.6812262    -0.8951092     1.7201315
C           4.8537191    -0.6414116    -0.4172799
C           5.5719496    -1.0375928    -1.5536077
H           5.2994560    -0.6294356    -2.5246768
C           6.6355464    -1.9385987    -1.4575796
H           7.1800679    -2.2273306    -2.3528093
25
178_C10H13NO_0-2-3-20 (-15,) energy =    -518.8874549
N           2.2024293    -1.5952256    -0.2943761
H           3.0371998    -2.1493725    -0.4181595
C           2.3230933    -0.2374300    -0.2909292
C           3.7408568     0.3291402    -0.5624147
C           3.9602826     1.5891744     0.2955359
H           4.8867835     2.0930562     0.0024677
H           4.0303987     1.3411553     1.3601278
H           3.1176543     2.2711633     0.1647721
H           3.6952811     0.6560569    -1.6112409
O           1.3702001     0.5175611    -0.1283922
C           0.9294818    -2.2674170    -0.1118144
H           0.9553401    -2.9325272     0.7596683
H           0.6608867    -2.8578095    -0.9964049
H           0.1731099    -1.4975586     0.0465733
C           7.0144662    -2.5069970    -0.2551094
H           7.8374428    -3.2124411    -0.1791427
C           6.3092116    -2.1236050     0.8883412
H           6.5815322    -2.5309608     1.8585607
C           5.2552450    -1.2154497     0.7918453
H           4.7144937    -0.9272215     1.6898420
C           4.8812456    -0.6701771    -0.4483635
C           5.5962374    -1.0695266    -1.5861226
H           5.3236948    -0.6585587    -2.5558467
C           6.6539096    -1.9769372    -1.4939085
H           7.1953903    -2.2666637    -2.3906490
25
178_C10H13NO_0-2-3-20 (0,) energy =    -518.8871949
N           2.2243121    -1.5726279    -0.2143685
H           3.0693108    -2.1241158    -0.1797873
C           2.3355973    -0.2320347    -0.4298986
C           3.7689676     0.3396792    -0.5779342
C           3.9214156     1.5466633     0.3692255
H           4.8653452     2.0667325     0.1775260
H           3.9101060     1.2395720     1.4207390
H           3.0895408     2.2364753     0.2108862
H           3.7811876     0.7350464    -1.6025068
O           1.3669546     0.5160187    -0.5147137
C           0.9408095    -2.2389915    -0.0940491
H           0.8604977    -2.7688029     0.8625630
H           0.7871443    -2.9581655    -0.9079923
H           0.1677481    -1.4711418    -0.1457378
C           7.0140417    -2.5326702    -0.2974323
H           7.8281292    -3.2492133    -0.2305269
C           6.3402245    -2.1259585     0.8560992
H           6.6280353    -2.5248239     1.8253998
C           5.2980937    -1.2017423     0.7720794
H           4.7860393    -0.8928781     1.6797587
C           4.9045296    -0.6651160    -0.4657511
C           5.5899760    -1.0880726    -1.6138781
H           5.3022368    -0.6839258    -2.5819932
C           6.6352240    -2.0097885    -1.5344501
H           7.1534731    -2.3167514    -2.4391649
25
178_C10H13NO_0-2-3-20 (15,) energy =    -518.8868399
N           2.2335221    -1.5439195    -0.1482264
H           3.0777296    -2.0644419     0.0424858
C           2.3530357    -0.2509715    -0.5610297
C           3.7803479     0.3515032    -0.5727031
C           3.8334285     1.4847123     0.4724751
H           4.7912791     2.0122964     0.4204784
H           3.7072709     1.1053645     1.4924271
H           3.0238936     2.1920478     0.2765179
H           3.8471233     0.8244848    -1.5599339
O           1.3947713     0.4458904    -0.8784058
C           0.9549088    -2.2278648    -0.0894427
H           0.7758379    -2.6387293     0.9110489
H           0.9039041    -3.0453195    -0.8194427
H           0.1811772    -1.4948492    -0.3217708
C           7.0153682    -2.5378762    -0.3383956
H           7.8241240    -3.2617885    -0.2880458
C           6.4061365    -2.0814195     0.8311968
H           6.7400677    -2.4479940     1.7984586
C           5.3708159    -1.1463209     0.7670152
H           4.9156424    -0.7951782     1.6891497
C           4.9203066    -0.6495112    -0.4672118
C           5.5436345    -1.1208759    -1.6327526
H           5.2117725    -0.7473087    -2.5990316
C           6.5800401    -2.0525498    -1.5728857
H           7.0492825    -2.3967759    -2.4908261
25
178_C10H13NO_0-2-3-20 (30,) energy =    -518.8864397
N           2.2244634    -1.4874821    -0.1066422
H           3.0467825    -1.9609637     0.2404779
C           2.3882346    -0.2688355    -0.6966931
C           3.7919697     0.3705709    -0.5643501
C           3.7379331     1.4099059     0.5728477
H           4.6901508     1.9440644     0.6569091
H           3.5171456     0.9462279     1.5404893
H           2.9452076     2.1330260     0.3626662
H           3.9094927     0.9224410    -1.5034761
O           1.4776636     0.3450826    -1.2417863
C           0.9598448    -2.1991457    -0.1257747
H           0.6634884    -2.4959683     0.8869266
H           1.0121944    -3.0971075    -0.7543730
H           0.2100495    -1.5219849    -0.5371892
C           7.0225079    -2.5276347    -0.3773722
H           7.8279188    -3.2561780    -0.3423688
C           6.5023861    -1.9966641     0.8024846
H           6.9029695    -2.3080045     1.7638000
C           5.4705771    -1.0548284     0.7568278
H           5.0907032    -0.6420119     1.6870812
C           4.9368309    -0.6273400    -0.4684893
C           5.4731948    -1.1718119    -1.6465459
H           5.0755486    -0.8508192    -2.6069448
C           6.5035666    -2.1094313    -1.6051915
H           6.9045482    -2.5112757    -2.5320386
25
178_C10H13NO_0-2-3-20 (45,) energy =    -518.8858751
N           2.1814543    -1.3993059    -0.0335229
H           2.9530212    -1.8199442     0.4660635
C           2.4425635    -0.2881984    -0.7839415
C           3.8171788     0.3744089    -0.5288839
C           3.6945172     1.3235578     0.6774746
H           4.6327657     1.8628957     0.8462633
H           3.4351578     0.7880639     1.5970569
H           2.9039306     2.0553967     0.4865921
H           3.9712646     0.9908504    -1.4206933
O           1.6283203     0.2153064    -1.5486870
C           0.9375343    -2.1392059    -0.1437774
H           0.5166187    -2.3397027     0.8478681
H           1.0773621    -3.0940439    -0.6669576
H           0.2407822    -1.5240595    -0.7147977
C           7.0355250    -2.5414025    -0.4098595
H           7.8370052    -3.2749501    -0.3937411
C           6.5867169    -1.9635046     0.7763815
H           7.0395236    -2.2424037     1.7243917
C           5.5590128    -1.0153491     0.7542535
H           5.2368820    -0.5648619     1.6886795
C           4.9601569    -0.6297968    -0.4533081
C           5.4257187    -1.2202075    -1.6398648
H           4.9753944    -0.9311077    -2.5870869
C           6.4502858    -2.1637934    -1.6216305
H           6.7956446    -2.6028361    -2.5539962
25
178_C10H13NO_0-2-3-20 (60,) energy =    -518.8851076
N           2.0815300    -1.2695541     0.0157072
H           2.7698323    -1.6059374     0.6757548
C           2.4792862    -0.3062685    -0.8704740
C           3.8118054     0.3928567    -0.5164940
C           3.6411448     1.2794928     0.7284885
H           4.5615902     1.8348015     0.9389889
H           3.3804731     0.7003616     1.6207078
H           2.8369526     2.0026463     0.5601159
H           3.9883357     1.0494233    -1.3746168
O           1.8133819     0.0279103    -1.8427881
C           0.8918580    -2.0741520    -0.2003669
H           0.3504779    -2.2151344     0.7410747
H           1.1328384    -3.0594473    -0.6212750
H           0.2568411    -1.5394455    -0.9077942
C           7.0394036    -2.5150907    -0.4383753
H           7.8426338    -3.2469028    -0.4332889
C           6.6407408    -1.9004710     0.7468942
H           7.1342160    -2.1487674     1.6831106
C           5.6095448    -0.9553795     0.7394896
H           5.3267760    -0.4772622     1.6728514
C           4.9602404    -0.6100326    -0.4526101
C           5.3743396    -1.2369379    -1.6397611
H           4.8790795    -0.9799088    -2.5735407
C           6.4009672    -2.1778967    -1.6355099
H           6.7062032    -2.6470991    -2.5672184
25
178_C10H13NO_0-2-3-20 (75,) energy =    -518.8844757
N           1.9740977    -1.1813600     0.0609738
H           2.5145587    -1.3761874     0.8922267
C           2.5375289    -0.3763238    -0.8897772
C           3.8276865     0.3538421    -0.4568306
C           3.6380946     1.1765662     0.8262970
H           4.5429632     1.7508665     1.0523030
H           3.4111503     0.5582958     1.7021153
H           2.8109164     1.8823614     0.7008751
H           4.0046657     1.0541598    -1.2799766
O           2.0596917    -0.2277238    -2.0086123
C           0.8281758    -2.0281398    -0.2213929
H           0.1166062    -1.9986954     0.6105913
H           1.1232185    -3.0707407    -0.3992870
H           0.3496295    -1.6428415    -1.1224601
C           7.1098678    -2.4953435    -0.4979615
H           7.9278935    -3.2102600    -0.5231178
C           6.7636271    -1.8646886     0.6953181
H           7.3119537    -2.0842286     1.6079349
C           5.7127166    -0.9424588     0.7267568
H           5.4687565    -0.4554514     1.6662702
C           4.9933476    -0.6356823    -0.4342222
C           5.3525947    -1.2780580    -1.6308257
H           4.7963260    -1.0534845    -2.5376792
C           6.3983256    -2.1971747    -1.6637208
H           6.6606912    -2.6808104    -2.6010843
25
178_C10H13NO_0-2-3-20 (90,) energy =    -518.8840016
N           1.8358705    -1.0899075     0.0993379
H           2.2081930    -1.1008650     1.0374608
C           2.5646684    -0.4803785    -0.8812522
C           3.8226524     0.2858186    -0.4175927
C           3.6318305     1.0811247     0.8812866
H           4.5145271     1.6969718     1.0833458
H           3.4776280     0.4452072     1.7614286
H           2.7663403     1.7457885     0.7975293
H           3.9794993     1.0079439    -1.2266642
O           2.2577947    -0.5334012    -2.0676571
C           0.6968883    -1.9416448    -0.1966064
H          -0.1238639    -1.7371568     0.4989866
H           0.9567527    -3.0066156    -0.1361356
H           0.3753383    -1.7185140    -1.2144876
C           7.2079031    -2.4424854    -0.5427414
H           8.0530113    -3.1242703    -0.5872909
C           6.8552795    -1.8385088     0.6624721
H           7.4247440    -2.0463646     1.5648656
C           5.7695238    -0.9594065     0.7198033
H           5.5211550    -0.4948136     1.6692161
C           5.0214391    -0.6686581    -0.4268703
C           5.3864673    -1.2837320    -1.6358274
H           4.8034927    -1.0749374    -2.5284540
C           6.4668918    -2.1609346    -1.6937336
H           6.7325387    -2.6246801    -2.6402563
25
178_C10H13NO_0-2-3-20 (105,) energy =    -518.8833938
N           1.7129074    -0.9808010     0.1526691
H           1.9545841    -0.7886461     1.1128097
C           2.5764182    -0.5995571    -0.8328364
C           3.8199586     0.2074426    -0.3919201
C           3.6514022     1.0008202     0.9109550
H           4.5229777     1.6415822     1.0794309
H           3.5538851     0.3608622     1.7968038
H           2.7656170     1.6419931     0.8595824
H           3.9328780     0.9360878    -1.2037098
O           2.3895873    -0.8650453    -2.0158231
C           0.5468111    -1.8057519    -0.1117160
H          -0.3415381    -1.3836988     0.3708470
H           0.6890384    -2.8340245     0.2446166
H           0.3985575    -1.8257269    -1.1919221
C           7.3185491    -2.3717084    -0.6077949
H           8.1926578    -3.0141542    -0.6737799
C           6.9346212    -1.8298574     0.6171943
H           7.5078367    -2.0476989     1.5148535
C           5.8117252    -1.0014100     0.7006280
H           5.5401222    -0.5871513     1.6666613
C           5.0560700    -0.6988963    -0.4383410
C           5.4525179    -1.2511229    -1.6672411
H           4.8614940    -1.0392348    -2.5526155
C           6.5701310    -2.0786560    -1.7507382
H           6.8587947    -2.4947029    -2.7125827
25
178_C10H13NO_0-2-3-20 (120,) energy =    -518.8826727
N           1.6361790    -0.9887195     0.3190292
H           1.7626782    -0.2628037     1.0070047
C           2.5350704    -1.1005221    -0.7061134
C           3.7047757    -0.0923998    -0.7204028
C           3.6385427     1.0497361     0.3115883
H           4.4664849     1.7462781     0.1462439
H           3.7357592     0.6793941     1.3394771
H           2.7050580     1.6193601     0.2269333
H           3.6427095     0.3560482    -1.7194163
O           2.4326673    -1.9436762    -1.5881183
C           0.4794994    -1.8590105     0.4361684
H          -0.4555699    -1.2895275     0.3694856
H           0.4910053    -2.4076008     1.3854896
H           0.5251887    -2.5699596    -0.3897230
C           7.5228497    -2.1330562    -0.4482348
H           8.4828973    -2.6368504    -0.3745639
C           6.5528380    -2.3221896     0.5387020
H           6.7541537    -2.9765416     1.3829848
C           5.3208933    -1.6767753     0.4422109
H           4.5683503    -1.8398598     1.2107626
C           5.0342233    -0.8344079    -0.6409550
C           6.0120063    -0.6558260    -1.6249804
H           5.8017646    -0.0121988    -2.4761297
C           7.2480973    -1.2983599    -1.5315362
H           7.9932349    -1.1491250    -2.3086559
25
178_C10H13NO_0-2-3-20 (135,) energy =    -518.8820281
N           1.5242496    -0.9023542     0.2558306
H           1.5767134    -0.0865846     0.8453681
C           2.5566908    -1.1781495    -0.5981926
C           3.7095155    -0.1501567    -0.6499727
C           3.6588732     0.9896086     0.3863695
H           4.5109266     1.6605460     0.2402136
H           3.7190380     0.6092354     1.4129252
H           2.7486775     1.5939541     0.2853133
H           3.6066889     0.3035248    -1.6449902
O           2.5663161    -2.1625938    -1.3262988
C           0.3609138    -1.7639597     0.3704640
H          -0.5580661    -1.2275994     0.1046175
H           0.2568570    -2.1577190     1.3887408
H           0.5039909    -2.5944591    -0.3219357
C           7.5852253    -2.0902459    -0.5074628
H           8.5609525    -2.5669455    -0.4657920
C           6.6509789    -2.3096910     0.5075340
H           6.8968931    -2.9611177     1.3421847
C           5.3992384    -1.6989659     0.4515362
H           4.6752349    -1.8860548     1.2417159
C           5.0559102    -0.8619316    -0.6189034
C           5.9982605    -0.6519414    -1.6304085
H           5.7448871    -0.0105655    -2.4716658
C           7.2543185    -1.2598732    -1.5779688
H           7.9708250    -1.0867802    -2.3767786
25
178_C10H13NO_0-2-3-20 (150,) energy =    -518.8815104
N           1.4366243    -0.8367746     0.1690378
H           1.4198726     0.0811763     0.5845190
C           2.5706534    -1.2620541    -0.4680312
C           3.7108348    -0.2253589    -0.5976729
C           3.6859865     0.9276224     0.4287081
H           4.5542169     1.5758263     0.2763446
H           3.7309895     0.5523866     1.4572341
H           2.7948780     1.5597807     0.3238006
H           3.5600483     0.2180377    -1.5925452
O           2.6663792    -2.3777057    -0.9634771
C           0.2616472    -1.6785538     0.3086999
H          -0.6127481    -1.2217677    -0.1705069
H           0.0279898    -1.8635748     1.3642548
H           0.4829611    -2.6279411    -0.1803491
C           7.6440842    -2.0471887    -0.5744885
H           8.6360567    -2.4909047    -0.5612246
C           6.7337862    -2.3306534     0.4465630
H           7.0141780    -2.9989700     1.2566364
C           5.4605464    -1.7642231     0.4280929
H           4.7555566    -2.0057941     1.2196939
C           5.0714730    -0.9068193    -0.6099703
C           5.9905484    -0.6326782    -1.6278307
H           5.7034565     0.0265141    -2.4445100
C           7.2679391    -1.1968945    -1.6137253
H           7.9650464    -0.9739226    -2.4173533
25
178_C10H13NO_0-2-3-20 (165,) energy =    -518.8814249
N           1.3675418    -0.8239119     0.0808440
H           1.2742905     0.1725706     0.2020481
C           2.5762403    -1.3376444    -0.3067820
C           3.7027591    -0.2959447    -0.5106706
C           3.7017402     0.8445642     0.5348627
H           4.5560799     1.5052146     0.3588764
H           3.7879243     0.4494192     1.5525023
H           2.8005526     1.4682213     0.4849781
H           3.5037612     0.1575024    -1.4928562
O           2.7425959    -2.5334610    -0.5092515
C           0.1811741    -1.6486702     0.2260606
H          -0.5725535    -1.4081606    -0.5344070
H          -0.2663614    -1.5198076     1.2184231
H           0.4901767    -2.6871560     0.1020183
C           7.6782235    -2.0152279    -0.6568403
H           8.6822222    -2.4302657    -0.6872277
C           6.8203150    -2.3259579     0.4011030
H           7.1541744    -2.9881863     1.1957621
C           5.5313969    -1.7972957     0.4401888
H           4.8671523    -2.0640549     1.2569100
C           5.0745186    -0.9481237    -0.5771698
C           5.9414581    -0.6472453    -1.6330170
H           5.6018204     0.0066091    -2.4339517
C           7.2340116    -1.1744236    -1.6764773
H           7.8892283    -0.9293300    -2.5084328
25
178_C10H13NO_0-2-3-20 (180,) energy =    -518.8822074
N           1.3452532    -0.8014925    -0.0737618
H           1.2316147     0.1875054    -0.2398847
C           2.5971148    -1.3486650    -0.1832122
C           3.7222821    -0.3137098    -0.4266399
C           3.7317844     0.7845739     0.6665102
H           4.5393498     1.4967276     0.4701643
H           3.9028709     0.3468767     1.6554654
H           2.7924572     1.3473394     0.7076700
H           3.4944283     0.1743403    -1.3851489
O           2.7950596    -2.5517698    -0.0784566
C           0.1513456    -1.6102609     0.0972349
H          -0.4825668    -1.5916168    -0.7984204
H          -0.4376120    -1.2613187     0.9532875
H           0.4771258    -2.6353173     0.2775335
C           7.6989386    -2.0040890    -0.7406359
H           8.7033711    -2.4125291    -0.8153281
C           6.9001923    -2.2995937     0.3667633
H           7.2807267    -2.9437092     1.1553291
C           5.6107928    -1.7793940     0.4654436
H           4.9921222    -2.0342728     1.3194523
C           5.0949913    -0.9527646    -0.5429449
C           5.9033095    -0.6670592    -1.6490054
H           5.5175628    -0.0300184    -2.4426920
C           7.1958395    -1.1858228    -1.7511837
H           7.8049443    -0.9510827    -2.6203483
