26
047_C13H11NO_0-2-9-10 (-165,) energy =    -632.0030155
N           1.2593346    -0.9505936    -0.0908359
H           1.1081132     0.0066671     0.1931021
C           2.5628843    -1.3070866    -0.3604226
C           5.6749607     1.5213989     0.5887797
H           6.4762173     2.2194797     0.8155483
C           4.4125675     1.6978196     1.1572677
H           4.2302911     2.5258395     1.8366833
C           3.3827621     0.8031901     0.8663227
H           2.4234569     0.9408332     1.3590088
C           3.6021933    -0.2766413    -0.0022676
C           4.8807010    -0.4580715    -0.5484190
H           5.0431722    -1.3120685    -1.1971053
C           5.9071825     0.4379312    -0.2619628
H           6.8907333     0.2899080    -0.6993207
O           2.8823727    -2.3837350    -0.8539616
C          -2.3684525    -3.0424467    -0.5942717
H          -3.3118227    -3.5669881    -0.7154258
C          -1.1613356    -3.6830671    -0.8757855
H          -1.1622296    -4.7142655    -1.2192322
C           0.0610455    -3.0271143    -0.7278536
H           0.9939491    -3.5234786    -0.9525864
C           0.0763375    -1.6949566    -0.2856320
C          -1.1378025    -1.0485104    -0.0009816
H          -1.1302710    -0.0158289     0.3438604
C          -2.3483764    -1.7172677    -0.1551920
H          -3.2766412    -1.1989400     0.0697223
26
047_C13H11NO_0-2-9-10 (-150,) energy =    -632.0031496
N           1.2689480    -0.9650635    -0.0908500
H           1.1387542     0.0150691     0.1182594
C           2.5751090    -1.3772667    -0.2514074
C           5.6165435     1.5602763     0.5602792
H           6.3958350     2.2931942     0.7508683
C           4.4191621     1.6124151     1.2755366
H           4.2681674     2.3770154     2.0326168
C           3.4159791     0.6748150     1.0279771
H           2.5033535     0.7057414     1.6183987
C           3.6054797    -0.3277554     0.0659337
C           4.8190101    -0.3857088    -0.6325735
H           4.9612056    -1.1814077    -1.3564886
C           5.8150329     0.5576597    -0.3927796
H           6.7485608     0.5105246    -0.9467741
O           2.8979118    -2.4922544    -0.6460403
C          -2.3851180    -3.0040003    -0.6166243
H          -3.3350917    -3.5144322    -0.7462092
C          -1.1830910    -3.6935942    -0.7793883
H          -1.1949657    -4.7491685    -1.0381361
C           0.0474757    -3.0562968    -0.6185281
H           0.9773427    -3.5902338    -0.7521122
C           0.0758931    -1.6931668    -0.2848901
C          -1.1327215    -0.9969468    -0.1202617
H          -1.1142380     0.0602770     0.1389703
C          -2.3515307    -1.6480234    -0.2856697
H          -3.2757330    -1.0915921    -0.1545816
26
047_C13H11NO_0-2-9-10 (-135,) energy =    -632.0020169
N           1.3022585    -0.9821518    -0.0962443
H           1.1918355     0.0115215     0.0546376
C           2.6030717    -1.4394018    -0.1311082
C           5.5796697     1.5973959     0.5283596
H           6.3371041     2.3614434     0.6808866
C           4.4648600     1.5436344     1.3663923
H           4.3566042     2.2576530     2.1782697
C           3.4874974     0.5675328     1.1662840
H           2.6294957     0.5180916     1.8327108
C           3.6304905    -0.3731888     0.1372973
C           4.7570561    -0.3204263    -0.6937858
H           4.8641777    -1.0628924    -1.4784114
C           5.7235575     0.6644219    -0.5023434
H           6.5907674     0.7047497    -1.1557734
O           2.9232160    -2.5888416    -0.4092379
C          -2.3736390    -2.9756343    -0.6435050
H          -3.3290207    -3.4736277    -0.7814961
C          -1.1822577    -3.6990948    -0.7083474
H          -1.2077981    -4.7688807    -0.8986474
C           0.0547283    -3.0777467    -0.5349048
H           0.9769217    -3.6383470    -0.5909704
C           0.1004862    -1.6966629    -0.2886354
C          -1.0970094    -0.9661669    -0.2231091
H          -1.0643018     0.1051487    -0.0325389
C          -2.3224569    -1.6018620    -0.3997291
H          -3.2382448    -1.0193435    -0.3456098
26
047_C13H11NO_0-2-9-10 (-120,) energy =    -631.9999047
N           1.3290021    -0.9971677    -0.1026333
H           1.2374254     0.0067179    -0.0199572
C           2.6168629    -1.4832073    -0.0207474
C           5.5484190     1.6245275     0.5054420
H           6.2899935     2.4093795     0.6271386
C           4.5418427     1.4616317     1.4584101
H           4.5008676     2.1141297     2.3263611
C           3.5835410     0.4591269     1.2978285
H           2.8006974     0.3303305     2.0415091
C           3.6453824    -0.4027169     0.1954144
C           4.6571310    -0.2354653    -0.7584761
H           4.7010744    -0.9097381    -1.6086503
C           5.6028491     0.7766091    -0.6041290
H           6.3831333     0.9047179    -1.3494125
O           2.9267021    -2.6577834    -0.1722987
C          -2.3615811    -2.9534251    -0.6825085
H          -3.3201253    -3.4421600    -0.8312322
C          -1.1857573    -3.7029811    -0.6309993
H          -1.2266211    -4.7835618    -0.7404369
C           0.0551192    -3.0941719    -0.4415699
H           0.9658993    -3.6748944    -0.4058253
C           0.1201363    -1.6994787    -0.2987208
C          -1.0613476    -0.9425279    -0.3504189
H          -1.0132889     0.1394195    -0.2404830
C          -2.2909023    -1.5662080    -0.5411396
H          -3.1945497    -0.9637530    -0.5785403
26
047_C13H11NO_0-2-9-10 (-105,) energy =    -631.9977382
N           1.3312215    -1.0011099    -0.1317611
H           1.2534199     0.0074501    -0.1415700
C           2.6023501    -1.4922227     0.0734641
C           5.5514022     1.6208299     0.4993905
H           6.2981466     2.4034141     0.6027259
C           4.6711273     1.3520328     1.5485733
H           4.7318227     1.9221956     2.4716466
C           3.7077084     0.3505357     1.4139890
H           3.0209797     0.1417129     2.2305090
C           3.6354239    -0.4011652     0.2350011
C           4.5173769    -0.1259919    -0.8170445
H           4.4602014    -0.7106588    -1.7309918
C           5.4715397     0.8822583    -0.6837228
H           6.1530988     1.0917785    -1.5036825
O           2.8963462    -2.6794988     0.0833013
C          -2.3594089    -2.9556605    -0.7193256
H          -3.3176200    -3.4437576    -0.8722508
C          -1.2011176    -3.7120767    -0.5371079
H          -1.2554748    -4.7975294    -0.5480406
C           0.0389106    -3.1039974    -0.3396878
H           0.9361588    -3.6902671    -0.2005814
C           0.1208152    -1.7030573    -0.3235304
C          -1.0428185    -0.9391443    -0.5067567
H          -0.9814528     0.1476133    -0.4949693
C          -2.2718009    -1.5623255    -0.7030802
H          -3.1617461    -0.9546322    -0.8431662
26
047_C13H11NO_0-2-9-10 (-90,) energy =    -631.9969166
N           1.3119317    -0.9845193    -0.1599639
H           1.2470210     0.0172074    -0.2858021
C           2.5640437    -1.4566051     0.1661335
C           5.5843790     1.6007498     0.4991768
H           6.3554054     2.3614050     0.5866907
C           4.8501156     1.2175115     1.6233182
H           5.0486946     1.6777932     2.5874413
C           3.8607349     0.2397335     1.5134039
H           3.2949734    -0.0657528     2.3896255
C           3.5995466    -0.3586743     0.2750287
C           4.3395583     0.0251841    -0.8496310
H           4.1457386    -0.4461377    -1.8096387
C           5.3290949     1.0026524    -0.7363190
H           5.9015489     1.2949732    -1.6124902
O           2.8366376    -2.6329087     0.3586425
C          -2.3564880    -2.9758976    -0.7634206
H          -3.3086775    -3.4738363    -0.9220764
C          -1.2197352    -3.7129278    -0.4293857
H          -1.2848540    -4.7929670    -0.3266406
C           0.0121570    -3.0919478    -0.2214616
H           0.8923708    -3.6632467     0.0374115
C           0.1079738    -1.6979015    -0.3516918
C          -1.0339069    -0.9534732    -0.6875808
H          -0.9616092     0.1279425    -0.7887884
C          -2.2552125    -1.5892681    -0.8913420
H          -3.1284007    -0.9966717    -1.1507088
26
047_C13H11NO_0-2-9-10 (-75,) energy =    -631.9980209
N           1.2973917    -0.9595783    -0.1763098
H           1.2495689     0.0246661    -0.4054162
C           2.5239632    -1.3997789     0.2710424
C           5.6164865     1.5911022     0.4845894
H           6.4116655     2.3292954     0.5439802
C           5.0348837     1.0937527     1.6536049
H           5.3775200     1.4431713     2.6237989
C           4.0210279     0.1397100     1.5799294
H           3.5834253    -0.2673132     2.4871086
C           3.5620655    -0.3037259     0.3331618
C           4.1580367     0.1844521    -0.8359897
H           3.8253853    -0.1789407    -1.8051959
C           5.1816570     1.1308331    -0.7588791
H           5.6423589     1.5028416    -1.6699936
O           2.7643980    -2.5437666     0.6309282
C          -2.3412121    -2.9943238    -0.8131239
H          -3.2854821    -3.5038461    -0.9820417
C          -1.2345454    -3.6959329    -0.3334453
H          -1.3155168    -4.7598324    -0.1264655
C          -0.0134202    -3.0594831    -0.1094794
H           0.8429551    -3.6027665     0.2642415
C           0.1025871    -1.6860927    -0.3738687
C          -1.0090751    -0.9772571    -0.8563394
H          -0.9212299     0.0881903    -1.0614368
C          -2.2202249    -1.6279329    -1.0732743
H          -3.0699112    -1.0629156    -1.4470330
26
047_C13H11NO_0-2-9-10 (-60,) energy =    -632.0002536
N           1.2956194    -0.9576226    -0.1908167
H           1.2682306     0.0056852    -0.4982412
C           2.4866081    -1.3651644     0.3718216
C           5.6282221     1.5739937     0.4668717
H           6.4362207     2.2998841     0.4983765
C           5.1852880     0.9694360     1.6467905
H           5.6487552     1.2238443     2.5960879
C           4.1578829     0.0292035     1.6080539
H           3.8282337    -0.4691865     2.5147076
C           3.5390592    -0.2866637     0.3916303
C           4.0004993     0.3044997    -0.7915583
H           3.5538655     0.0292588    -1.7440637
C           5.0415163     1.2341439    -0.7526221
H           5.3987150     1.6843933    -1.6748049
O           2.6792705    -2.4675375     0.8678205
C          -2.3268484    -3.0116548    -0.8556477
H          -3.2664855    -3.5265702    -1.0337762
C          -1.2567184    -3.6785980    -0.2580944
H          -1.3617112    -4.7206910     0.0322721
C          -0.0422148    -3.0347050    -0.0200954
H           0.7849367    -3.5507561     0.4463821
C           0.1050960    -1.6892141    -0.3913458
C          -0.9700254    -1.0153784    -0.9925820
H          -0.8583279     0.0284158    -1.2807410
C          -2.1752267    -1.6728305    -1.2215750
H          -2.9961996    -1.1347798    -1.6878590
26
047_C13H11NO_0-2-9-10 (-45,) energy =    -632.0022542
N           1.3002827    -0.9564039    -0.2136547
H           1.2913921    -0.0164499    -0.5862822
C           2.4505175    -1.3215762     0.4540298
C           5.6385204     1.5679799     0.4567894
H           6.4549247     2.2849878     0.4692335
C           5.3114636     0.8600538     1.6169361
H           5.8731029     1.0261533     2.5321328
C           4.2727178    -0.0675780     1.6007108
H           4.0250296    -0.6457953     2.4852864
C           3.5283929    -0.2720314     0.4314031
C           3.8740278     0.4239706    -0.7351341
H           3.3395707     0.2319788    -1.6625600
C           4.9253568     1.3419876    -0.7212244
H           5.1929899     1.8708863    -1.6318880
O           2.5910406    -2.3766837     1.0606509
C          -2.3145166    -3.0217194    -0.8854041
H          -3.2515887    -3.5399247    -1.0674436
C          -1.2837574    -3.6486831    -0.1843614
H          -1.4171515    -4.6626570     0.1835677
C          -0.0732820    -2.9999376     0.0607979
H           0.7222415    -3.4845883     0.6086285
C           0.1108735    -1.6902707    -0.4093357
C          -0.9248576    -1.0569672    -1.1151484
H          -0.7849284    -0.0411704    -1.4808092
C          -2.1266916    -1.7184574    -1.3496788
H          -2.9165177    -1.2115648    -1.8975482
26
047_C13H11NO_0-2-9-10 (-30,) energy =    -632.0031976
N           1.3140031    -0.9682511    -0.2478415
H           1.3192703    -0.0555684    -0.6816780
C           2.4159435    -1.2745659     0.5224955
C           5.6636669     1.5520530     0.4637766
H           6.4904150     2.2572065     0.4672751
C           5.4196703     0.7527361     1.5838395
H           6.0556865     0.8357361     2.4608725
C           4.3646404    -0.1561086     1.5772904
H           4.1706340    -0.7981766     2.4301594
C           3.5273313    -0.2621914     0.4584059
C           3.7872769     0.5312511    -0.6684070
H           3.1880059     0.4229263    -1.5692149
C           4.8512967     1.4337823    -0.6649376
H           5.0508710     2.0357865    -1.5471676
O           2.5003191    -2.2725207     1.2297714
C          -2.3026990    -3.0394366    -0.8927283
H          -3.2392453    -3.5599833    -1.0707527
C          -1.3048094    -3.6245628    -0.1124859
H          -1.4635824    -4.6082131     0.3217133
C          -0.0955529    -2.9721466     0.1290513
H           0.6731278    -3.4239150     0.7394506
C           0.1213295    -1.7011166    -0.4256618
C          -0.8814794    -1.1102466    -1.2116431
H          -0.7163831    -0.1247711    -1.6439024
C          -2.0824724    -1.7747010    -1.4415742
H          -2.8461911    -1.3003578    -2.0520317
26
047_C13H11NO_0-2-9-10 (-15,) energy =    -632.0029697
N           1.3156611    -0.9696954    -0.2739343
H           1.3382637    -0.0981071    -0.7832526
C           2.3766303    -1.2088235     0.5721074
C           5.7029253     1.5330894     0.4760769
H           6.5475241     2.2167486     0.4765638
C           5.5314873     0.6275528     1.5257959
H           6.2422714     0.6048016     2.3472849
C           4.4499617    -0.2493279     1.5223121
H           4.3019650    -0.9642254     2.3244714
C           3.5189691    -0.2308286     0.4740801
C           3.7037441     0.6761601    -0.5804454
H           3.0338570     0.6861479    -1.4366868
C           4.7896607     1.5514274    -0.5792403
H           4.9254372     2.2414751    -1.4073945
O           2.4155533    -2.1494389     1.3587359
C          -2.2937594    -3.0636291    -0.8911760
H          -3.2275379    -3.5906017    -1.0647847
C          -1.3405698    -3.5818479    -0.0139117
H          -1.5316890    -4.5196768     0.5011314
C          -0.1355501    -2.9200736     0.2236442
H           0.5979863    -3.3205536     0.9082310
C           0.1235225    -1.7076370    -0.4347058
C          -0.8345825    -1.1846908    -1.3188361
H          -0.6369490    -0.2454932    -1.8329041
C          -2.0320087    -1.8572131    -1.5432892
H          -2.7601845    -1.4351075    -2.2306792
26
047_C13H11NO_0-2-9-10 (0,) energy =    -632.0024400
N           1.3229969    -0.9808083    -0.3052306
H           1.4159129    -0.2161036    -0.9568887
C           2.3516051    -1.1625933     0.5908310
C           5.7379731     1.5131582     0.4848700
H           6.6025066     2.1713798     0.4807403
C           5.6558878     0.4649673     1.4038106
H           6.4572348     0.3031446     2.1195083
C           4.5467824    -0.3764490     1.4063242
H           4.4632568    -1.1962418     2.1111342
C           3.4996517    -0.1873550     0.4924094
C           3.5925881     0.8690109    -0.4269369
H           2.8105858     1.0626479    -1.1570942
C           4.7031433     1.7124703    -0.4301063
H           4.7580982     2.5253264    -1.1488661
O           2.3585508    -2.0573671     1.4308473
C          -2.2828908    -3.0904704    -0.8905047
H          -3.2159328    -3.6214375    -1.0556489
C          -1.4094138    -3.4915354     0.1207899
H          -1.6621764    -4.3413189     0.7495360
C          -0.2062531    -2.8233347     0.3497244
H           0.4682942    -3.1365654     1.1331266
C           0.1328427    -1.7241533    -0.4550197
C          -0.7454239    -1.3191077    -1.4738997
H          -0.4867878    -0.4673859    -2.1009790
C          -1.9417225    -1.9967116    -1.6883730
H          -2.6067714    -1.6668523    -2.4819866
26
047_C13H11NO_0-2-9-10 (15,) energy =    -632.0029697
N           1.3444932    -1.0075610    -0.3139736
H           1.5428020    -0.3695730    -1.0711004
C           2.3242777    -1.1403699     0.6457050
C           5.7227892     1.5066071     0.4479741
H           6.5929399     2.1564197     0.4112799
C           5.7396994     0.3517306     1.2336223
H           6.6250773     0.0989822     1.8104917
C           4.6225329    -0.4780027     1.2807386
H           4.6129574    -1.3759141     1.8890926
C           3.4732997    -0.1711936     0.5384249
C           3.4618645     0.9953573    -0.2411974
H           2.5724860     1.2956070    -0.7897157
C           4.5793887     1.8287713    -0.2847122
H           4.5524086     2.7338403    -0.8851645
O           2.2860372    -1.9794140     1.5399375
C          -2.2788111    -3.0824617    -0.9114961
H          -3.2161518    -3.6049039    -1.0794374
C          -1.4975464    -3.3733180     0.2073198
H          -1.8265895    -4.1277132     0.9172228
C          -0.2900424    -2.7148386     0.4411942
H           0.3158954    -2.9465320     1.3050744
C           0.1472766    -1.7386158    -0.4678139
C          -0.6383710    -1.4440059    -1.5943370
H          -0.3036531    -0.6862514    -2.3008610
C          -1.8397511    -2.1112488    -1.8133145
H          -2.4323053    -1.8689031    -2.6914276
26
047_C13H11NO_0-2-9-10 (30,) energy =    -632.0031977
N           1.3694219    -1.0310861    -0.3057378
H           1.6261915    -0.4512728    -1.0925777
C           2.2909243    -1.0988980     0.7178596
C           5.7136085     1.4962403     0.4148939
H           6.5877140     2.1387097     0.3520903
C           5.7902973     0.2717976     1.0841067
H           6.7248073    -0.0405842     1.5420319
C           4.6684879    -0.5486641     1.1709140
H           4.7033459    -1.4942487     1.7018866
C           3.4613041    -0.1645778     0.5713967
C           3.3864483     1.0726067    -0.0848071
H           2.4448586     1.4179104    -0.5049188
C           4.5080999     1.8988533    -0.1617881
H           4.4364343     2.8603145    -0.6628081
O           2.2003112    -1.8655235     1.6704106
C          -2.2611652    -3.0834906    -0.9322928
H          -3.1990049    -3.6022367    -1.1087497
C          -1.5497288    -3.2899179     0.2501526
H          -1.9345180    -3.9745442     1.0015070
C          -0.3429000    -2.6344318     0.4954733
H           0.2100810    -2.8011042     1.4087005
C           0.1649153    -1.7481847    -0.4673153
C          -0.5495797    -1.5385286    -1.6581362
H          -0.1588891    -0.8513841    -2.4067739
C          -1.7514838    -2.2016336    -1.8872014
H          -2.2890322    -2.0263322    -2.8152310
26
047_C13H11NO_0-2-9-10 (45,) energy =    -632.0022542
N           1.3578354    -1.0992885     0.0451774
H           1.5434126    -0.8478709     1.0068397
C           2.2766784    -0.6444001    -0.8773163
C           5.6972402     1.4228783     0.7160513
H           6.5678645     1.9482450     1.0991622
C           5.0360591     1.8997751    -0.4195017
H           5.3919338     2.7961597    -0.9199613
C           3.9266147     1.2220401    -0.9190658
H           3.4195805     1.5632770    -1.8160798
C           3.4469978     0.0782143    -0.2673600
C           4.1261908    -0.4086374     0.8579691
H           3.7963262    -1.3268476     1.3382847
C           5.2472022     0.2630653     1.3482644
H           5.7736151    -0.1257166     2.2156794
O           2.1521126    -0.7604358    -2.0905794
C          -2.2279797    -3.2692077    -0.4205671
H          -3.1537414    -3.8279741    -0.5231553
C          -1.4628577    -2.9549891    -1.5443392
H          -1.7936256    -3.2701199    -2.5305411
C          -0.2716692    -2.2372838    -1.4339179
H           0.3172189    -1.9897937    -2.3055952
C           0.1658818    -1.8247929    -0.1656248
C          -0.6022304    -2.1396968     0.9669938
H          -0.2654423    -1.8209192     1.9519233
C          -1.7889541    -2.8553500     0.8385198
H          -2.3697220    -3.0891674     1.7267565
26
047_C13H11NO_0-2-9-10 (60,) energy =    -632.0002536
N           1.3479689    -1.0822354     0.0326945
H           1.5036252    -0.7670267     0.9811862
C           2.3250097    -0.7316244    -0.8748134
C           5.6857861     1.4332982     0.7175572
H           6.5450462     1.9781517     1.0991044
C           4.9201386     1.9731799    -0.3198457
H           5.1837031     2.9372483    -0.7462224
C           3.8252380     1.2713368    -0.8195497
H           3.2433027     1.6675758    -1.6462475
C           3.4645713     0.0390279    -0.2594273
C           4.2472925    -0.5091829     0.7648537
H           3.9982986    -1.4860860     1.1724924
C           5.3540748     0.1881939     1.2528806
H           5.9605318    -0.2455263     2.0433447
O           2.2703240    -0.9579956    -2.0765308
C          -2.2454696    -3.2409214    -0.4262356
H          -3.1742023    -3.7949303    -0.5277989
C          -1.4235417    -3.0285073    -1.5336540
H          -1.7125830    -3.4189959    -2.5059028
C          -0.2274188    -2.3189065    -1.4240275
H           0.4067796    -2.1513492    -2.2829843
C           0.1563147    -1.8104329    -0.1733966
C          -0.6688026    -2.0223398     0.9427138
H          -0.3735756    -1.6283044     1.9135876
C          -1.8595500    -2.7315889     0.8151301
H          -2.4852466    -2.8853711     1.6902133
26
047_C13H11NO_0-2-9-10 (75,) energy =    -631.9980209
N           1.3462098    -1.0715568     0.0226584
H           1.4668699    -0.6836493     0.9492019
C           2.3798750    -0.8284134    -0.8552915
C           5.6723882     1.4561838     0.7241516
H           6.5143692     2.0291221     1.1030661
C           4.7876594     2.0340525    -0.1899271
H           4.9407612     3.0565451    -0.5243487
C           3.7121669     1.2976613    -0.6844706
H           3.0364149     1.7353414    -1.4138083
C           3.4980458    -0.0152016    -0.2460064
C           4.3956258    -0.5968893     0.6575439
H           4.2503208    -1.6256232     0.9779575
C           5.4788886     0.1388999     1.1418357
H           6.1737694    -0.3197816     1.8400607
O           2.3972553    -1.1827532    -2.0258367
C          -2.2669299    -3.1983216    -0.4325959
H          -3.2015985    -3.7423162    -0.5338695
C          -1.3871141    -3.0964924    -1.5108413
H          -1.6366595    -3.5638234    -2.4598449
C          -0.1822809    -2.4017455    -1.4009352
H           0.4979364    -2.3211275    -2.2370022
C           0.1503290    -1.7948856    -0.1800124
C          -0.7328419    -1.8952971     0.9067006
H          -0.4768921    -1.4247499     1.8543476
C          -1.9312809    -2.5915892     0.7792438
H          -2.6024778    -2.6587159     1.6312389
26
047_C13H11NO_0-2-9-10 (90,) energy =    -631.9969166
N           1.3536837    -1.0714098    -0.0096596
H           1.4365470    -0.5924527     0.8776050
C           2.4357049    -0.9412018    -0.8518382
C           5.6391562     1.4698052     0.7310957
H           6.4540438     2.0756628     1.1179176
C           4.6302809     2.0608560    -0.0321457
H           4.6583939     3.1267362    -0.2417520
C           3.5838777     1.2843335    -0.5312026
H           2.8030563     1.7418234    -1.1330275
C           3.5410063    -0.0896760    -0.2663566
C           4.5556286    -0.6801105     0.4963713
H           4.5299000    -1.7486114     0.6937774
C           5.6013779     0.0989730     0.9932642
H           6.3871164    -0.3654213     1.5829963
O           2.5181930    -1.4449039    -1.9629354
C          -2.2907759    -3.1494247    -0.4418891
H          -3.2340728    -3.6793087    -0.5377700
C          -1.3531058    -3.1816252    -1.4747190
H          -1.5656700    -3.7401289    -2.3825580
C          -0.1360381    -2.5075727    -1.3707621
H           0.5899024    -2.5326796    -2.1711085
C           0.1491605    -1.7834110    -0.2029621
C          -0.7921834    -1.7489538     0.8379848
H          -0.5728661    -1.1875760     1.7444532
C          -2.0016853    -2.4271266     0.7174529
H          -2.7182256    -2.3891095     1.5335557
26
047_C13H11NO_0-2-9-10 (105,) energy =    -631.9977382
N           1.3640123    -1.0562573    -0.0429350
H           1.4089895    -0.4817832     0.7885093
C           2.4895060    -1.0318876    -0.8377604
C           5.6095739     1.4778992     0.7545339
H           6.3999576     2.1064983     1.1556560
C           4.4898211     2.0590067     0.1575508
H           4.4066979     3.1403724     0.0899194
C           3.4713204     1.2518208    -0.3527309
H           2.5983164     1.7040837    -0.8166606
C           3.5797751    -0.1424984    -0.2863598
C           4.7025476    -0.7219595     0.3169399
H           4.7852935    -1.8041070     0.3670861
C           5.7131784     0.0870899     0.8354314
H           6.5820474    -0.3681103     1.3029955
O           2.6326906    -1.6859989    -1.8613774
C          -2.3011857    -3.1025678    -0.4494210
H          -3.2504451    -3.6227962    -0.5392178
C          -1.3106562    -3.2653290    -1.4186311
H          -1.4877651    -3.9168946    -2.2703216
C          -0.0848642    -2.6063008    -1.3210427
H           0.6828541    -2.7342114    -2.0709531
C           0.1546100    -1.7623524    -0.2255944
C          -0.8399795    -1.5966232     0.7513930
H          -0.6561419    -0.9427942     1.6020744
C          -2.0571023    -2.2623446     0.6385908
H          -2.8150279    -2.1218052     1.4045644
26
047_C13H11NO_0-2-9-10 (120,) energy =    -631.9999048
N           1.3557302    -1.0308495    -0.0554025
H           1.3659582    -0.3865659     0.7242137
C           2.5258669    -1.1004228    -0.7816704
C           5.6057845     1.4846060     0.7548348
H           6.3873444     2.1285709     1.1488031
C           4.3979972     2.0359564     0.3245509
H           4.2387211     3.1095977     0.3764617
C           3.3901757     1.2079590    -0.1733150
H           2.4500213     1.6375370    -0.5110533
C           3.5981543    -0.1739593    -0.2679509
C           4.8116554    -0.7229105     0.1651573
H           4.9672846    -1.7947189     0.0853002
C           5.8098216     0.1042522     0.6769868
H           6.7477682    -0.3273494     1.0156283
O           2.7223188    -1.8746226    -1.7093653
C          -2.3113394    -3.0720078    -0.4675041
H          -3.2619320    -3.5892991    -0.5600806
C          -1.2735362    -3.3334992    -1.3628452
H          -1.4147487    -4.0596059    -2.1591682
C          -0.0450406    -2.6803410    -1.2604416
H           0.7597517    -2.8862949    -1.9517657
C           0.1487541    -1.7404495    -0.2363066
C          -0.8936199    -1.4754369     0.6663435
H          -0.7453838    -0.7472897     1.4618519
C          -2.1126182    -2.1370296     0.5501796
H          -2.9076026    -1.9188377     1.2582208
26
047_C13H11NO_0-2-9-10 (135,) energy =    -632.0020170
N           1.3303915    -1.0199801    -0.0408426
H           1.3058208    -0.3291971     0.6971060
C           2.5426120    -1.1650870    -0.6825982
C           5.6273055     1.4905558     0.7133375
H           6.4146181     2.1490762     1.0700256
C           4.3535520     2.0011085     0.4586162
H           4.1488247     3.0580036     0.6060906
C           3.3394547     1.1545730     0.0080333
H           2.3533085     1.5599103    -0.2063403
C           3.6002967    -0.2052509    -0.2088783
C           4.8837246    -0.7094560     0.0385600
H           5.0778360    -1.7613240    -0.1465424
C           5.8903061     0.1339902     0.5034082
H           6.8813401    -0.2652267     0.7012196
O           2.7804029    -2.0248464    -1.5224438
C          -2.3341950    -3.0549617    -0.5041539
H          -3.2852190    -3.5687300    -0.6108711
C          -1.2519696    -3.3925685    -1.3176725
H          -1.3588109    -4.1753634    -2.0640800
C          -0.0221662    -2.7453210    -1.1954322
H           0.8168540    -3.0116322    -1.8223207
C           0.1279201    -1.7327948    -0.2350333
C          -0.9595192    -1.3911925     0.5851494
H          -0.8456649    -0.6064549     1.3310234
C          -2.1791123    -2.0480730     0.4505376
H          -3.0088820    -1.7696650     1.0946616
26
047_C13H11NO_0-2-9-10 (150,) energy =    -632.0031494
N           1.2979489    -1.0075966    -0.0246158
H           1.2394661    -0.2807179     0.6750826
C           2.5496449    -1.2275675    -0.5600062
C           5.6518198     1.4985627     0.6579427
H           6.4485057     2.1712970     0.9637306
C           4.3387499     1.9639741     0.5726800
H           4.1116506     3.0020823     0.7992267
C           3.3146257     1.0993176     0.1849238
H           2.3025801     1.4850133     0.0878469
C           3.5973870    -0.2382786    -0.1272393
C           4.9216135    -0.6919204    -0.0596151
H           5.1293404    -1.7226855    -0.3275224
C           5.9411023     0.1691419     0.3387169
H           6.9632252    -0.1946413     0.3979538
O           2.8206039    -2.1608645    -1.3074418
C          -2.3545209    -3.0525467    -0.5381485
H          -3.3034197    -3.5669182    -0.6597786
C          -1.2366697    -3.4458724    -1.2747857
H          -1.3133350    -4.2729240    -1.9757974
C          -0.0087861    -2.7991078    -1.1323829
H           0.8575364    -3.1098462    -1.6985167
C           0.1032407    -1.7299463    -0.2298305
C          -1.0205954    -1.3320367     0.5125363
H          -0.9372881    -0.5028403     1.2130639
C          -2.2377610    -1.9890611     0.3588832
H          -3.0955503    -1.6665083     0.9429080
26
047_C13H11NO_0-2-9-10 (165,) energy =    -632.0030155
N           1.2719539    -0.9947922    -0.0056094
H           1.1733539    -0.2243220     0.6397553
C           2.5519305    -1.2676855    -0.4371445
C           5.6771841     1.5139742     0.6029265
H           6.4823372     2.1983306     0.8561895
C           4.3483962     1.9257900     0.7154622
H           4.1152150     2.9344778     1.0450384
C           3.3138237     1.0480970     0.3916702
H           2.2907515     1.4117557     0.4466437
C           3.5963579    -0.2554815    -0.0436379
C           4.9350914    -0.6504686    -0.1761577
H           5.1391981    -1.6520413    -0.5390549
C           5.9675998     0.2240570     0.1519691
H           7.0003803    -0.0985631     0.0527640
O           2.8467338    -2.2568570    -1.1000582
C          -2.3668538    -3.0474463    -0.5850817
H          -3.3130175    -3.5620241    -0.7256223
C          -1.2106018    -3.5075698    -1.2160669
H          -1.2541548    -4.3871636    -1.8530503
C           0.0146825    -2.8619722    -1.0480017
H           0.9097274    -3.2241440    -1.5326883
C           0.0850342    -1.7251836    -0.2275072
C          -1.0780487    -1.2599666     0.4079882
H          -1.0281305    -0.3775939     1.0438573
C          -2.2920028    -1.9167139     0.2304824
H          -3.1800651    -1.5410848     0.7316549
26
047_C13H11NO_0-2-9-10 (180,) energy =    -632.0024399
N           1.2552615    -0.9639920    -0.0428892
H           1.1055794    -0.0839020     0.4273351
C           2.5520109    -1.2728207    -0.3849796
C           5.7078708     1.5080808     0.5874607
H           6.5218344     2.1894188     0.8197345
C           4.3984713     1.8365985     0.9414964
H           4.1885478     2.7734567     1.4500145
C           3.3520605     0.9639107     0.6445155
H           2.3488065     1.2613659     0.9397567
C           3.5993165    -0.2517519    -0.0117645
C           4.9198586    -0.5696533    -0.3618730
H           5.0977505    -1.5117394    -0.8684692
C           5.9650722     0.3009306    -0.0656635
H           6.9816759     0.0377760    -0.3446303
O           2.8646375    -2.3110286    -0.9600294
C          -2.3604496    -3.0657583    -0.5944192
H          -3.3009902    -3.5924268    -0.7277203
C          -1.1672836    -3.6182912    -1.0609083
H          -1.1763479    -4.5828006    -1.5618801
C           0.0514520    -2.9584958    -0.9001144
H           0.9738634    -3.3886798    -1.2619617
C           0.0775647    -1.7120726    -0.2547212
C          -1.1229014    -1.1543278     0.2158311
H          -1.1080449    -0.1880360     0.7174475
C          -2.3298171    -1.8258873     0.0467077
H          -3.2469187    -1.3766152     0.4181954
