25
097_C11H12N2_17-0-9-10 (-165,) energy =    -535.8975412
C           2.8106976    -1.8964090    -0.6609161
H           3.3114550    -2.6456029    -1.2896660
H           2.3764193    -2.4473488     0.1816443
C           5.7832255     0.8205097     0.9620275
H           6.5284051     1.4915637     1.3807575
C           4.5376596     1.3095629     0.5683943
H           4.3055719     2.3652501     0.6836173
C           3.5789528     0.4477276     0.0301767
H           2.6049823     0.8342054    -0.2562802
C           3.8536821    -0.9156754    -0.1292496
C           5.1064255    -1.3975105     0.2764326
H           5.3333141    -2.4562338     0.1656118
C           6.0641784    -0.5399422     0.8162653
H           7.0301288    -0.9337234     1.1220843
C          -0.3122796    -0.5736227    -1.8967715
H          -1.3638477    -0.3562097    -1.7649570
N           0.4246569    -1.1798253    -0.9060944
C           1.6490351    -1.2921629    -1.3906758
N           1.7356913    -0.7710160    -2.6605272
C           2.9041825    -0.7603759    -3.5260433
H           3.0397059    -1.7257541    -4.0280659
H           3.7985696    -0.5325998    -2.9413996
H           2.7800997     0.0148231    -4.2856422
C           0.4737110    -0.3140308    -2.9898214
H           0.2693609     0.1399746    -3.9485952
25
097_C11H12N2_17-0-9-10 (-150,) energy =    -535.8984349
C           2.7595659    -1.8770391    -0.5967135
H           3.2432457    -2.6840650    -1.1632004
H           2.2783637    -2.3526166     0.2660781
C           5.7871678     0.8445516     0.9057807
H           6.5447607     1.5201120     1.2939654
C           4.4716022     1.2824154     0.7410640
H           4.2000753     2.3013704     1.0048833
C           3.4980536     0.4167001     0.2409830
H           2.4728432     0.7579806     0.1258500
C           3.8249324    -0.9009924    -0.1058253
C           5.1467012    -1.3316463     0.0678945
H           5.4145682    -2.3541174    -0.1915736
C           6.1219394    -0.4678744     0.5690691
H           7.1426316    -0.8204162     0.6936988
C          -0.2640981    -0.4814159    -1.9904416
H          -1.3079705    -0.2119401    -1.9003004
N           0.4147431    -1.0758400    -0.9518489
C           1.6463551    -1.2640042    -1.3933873
N           1.7943392    -0.8026418    -2.6800043
C           2.9878374    -0.8776903    -3.5071273
H           3.0870725    -1.8625114    -3.9791067
H           3.8742149    -0.6817519    -2.8993678
H           2.9295224    -0.1182086    -4.2901925
C           0.5647619    -0.3049755    -3.0680068
H           0.4098025     0.1151710    -4.0511687
25
097_C11H12N2_17-0-9-10 (-135,) energy =    -535.8988794
C           2.6848384    -1.8541597    -0.5160591
H           3.1554035    -2.7026090    -1.0298982
H           2.1572755    -2.2680671     0.3506616
C           5.7577297     0.8672656     0.8866905
H           6.5255655     1.5471358     1.2461737
C           4.4102880     1.2332639     0.9460065
H           4.1267667     2.1998895     1.3544476
C           3.4238577     0.3633461     0.4834400
H           2.3760083     0.6488285     0.5289153
C           3.7675690    -0.8892835    -0.0445457
C           5.1198520    -1.2468565    -0.0992186
H           5.4011634    -2.2182080    -0.5016718
C           6.1102672    -0.3763088     0.3628923
H           7.1551790    -0.6715471     0.3115334
C          -0.2264138    -0.3804533    -2.0619698
H          -1.2564630    -0.0533399    -2.0129496
N           0.3948491    -0.9579880    -0.9786772
C           1.6250210    -1.2317600    -1.3781447
N           1.8283455    -0.8420192    -2.6803093
C           3.0342919    -1.0193869    -3.4729833
H           3.0920444    -2.0301095    -3.8945551
H           3.9163757    -0.8389586    -2.8543293
H           3.0329766    -0.2975699    -4.2929889
C           0.6361331    -0.3011174    -3.1241771
H           0.5276900     0.0779738    -4.1299867
25
097_C11H12N2_17-0-9-10 (-120,) energy =    -535.8986166
C           2.9007956    -1.9480776    -0.4873726
H           3.4107754    -2.7863488    -0.9799752
H           2.3728244    -2.3628760     0.3774854
C           5.8271441     0.9671040     0.8347696
H           6.5565850     1.7001386     1.1687859
C           4.4723506     1.1353210     1.1359069
H           4.1453014     2.0015568     1.7052916
C           3.5355655     0.1964509     0.7077714
H           2.4802587     0.3333218     0.9304725
C           3.9369786    -0.9309912    -0.0232507
C           5.2946934    -1.0881079    -0.3233690
H           5.6223919    -1.9620986    -0.8833102
C           6.2362492    -0.1472469     0.1034855
H           7.2871823    -0.2885554    -0.1356874
C          -0.0227547    -0.5685845    -2.0950224
H          -1.0566750    -0.2522066    -2.0587133
N           0.6037595    -1.1011453    -0.9922245
C           1.8372432    -1.3754897    -1.3810871
N           2.0368881    -1.0326627    -2.6965595
C           3.2475536    -1.2175192    -3.4802512
H           3.3984952    -2.2725552    -3.7379911
H           4.1170617    -0.8581944    -2.9241646
H           3.1625524    -0.6422699    -4.4045340
C           0.8391849    -0.5196146    -3.1593505
H           0.7272781    -0.1798383    -4.1787067
25
097_C11H12N2_17-0-9-10 (-105,) energy =    -535.8976050
C           2.6570735    -1.8275878    -0.4564053
H           3.1096895    -2.7274049    -0.8941166
H           2.0562378    -2.1555970     0.3969209
C           5.7489315     0.9211095     0.8463373
H           6.5181702     1.6165373     1.1713649
C           4.4420275     1.0422837     1.3262342
H           4.1908625     1.8354871     2.0256617
C           3.4558110     0.1490952     0.9104042
H           2.4354783     0.2544615     1.2707025
C           3.7588295    -0.8857269     0.0144309
C           5.0690459    -0.9937767    -0.4655626
H           5.3243584    -1.7977908    -1.1529481
C           6.0599851    -0.0997998    -0.0513711
H           7.0740676    -0.2052613    -0.4284833
C          -0.0445649    -0.2237299    -2.2326486
H          -1.0380337     0.2044157    -2.2452224
N           0.4905020    -0.7608071    -1.0854646
C           1.6916076    -1.1984124    -1.4222119
N           1.9556360    -0.9664929    -2.7511972
C           3.1752850    -1.2707725    -3.4804911
H           3.4973093    -2.2963101    -3.2755760
H           3.9845704    -0.5863642    -3.2061656
H           2.9789482    -1.1808167    -4.5510027
C           0.8397258    -0.3375899    -3.2731369
H           0.7894891    -0.0508887    -4.3134747
25
097_C11H12N2_17-0-9-10 (-90,) energy =    -535.8959918
C           2.6399699    -1.7428444    -0.4835250
H           3.0812292    -2.6611916    -0.8929166
H           1.9993163    -2.0420015     0.3505496
C           5.7268896     0.9596323     0.9267148
H           6.4923771     1.6463202     1.2780330
C           4.4841152     0.9070016     1.5613184
H           4.2768760     1.5555808     2.4085585
C           3.5031754     0.0237924     1.1105814
H           2.5310658    -0.0027253     1.5963695
C           3.7473633    -0.8271329     0.0247308
C           4.9949290    -0.7606877    -0.6080643
H           5.2117838    -1.4227213    -1.4432481
C           5.9797973     0.1218423    -0.1600006
H           6.9453301     0.1511957    -0.6586337
C           0.0848231    -0.0220052    -2.3632540
H          -0.8592075     0.5054539    -2.3974170
N           0.5911842    -0.5097591    -1.1823685
C           1.7313904    -1.0994054    -1.4967556
N           1.9813685    -1.0175348    -2.8470787
C           3.1355259    -1.5070189    -3.5811092
H           3.4772801    -2.4552605    -3.1584954
H           3.9631536    -0.7897670    -3.5540156
H           2.8497203    -1.6802450    -4.6214409
C           0.9233190    -0.3214623    -3.4044060
H           0.8751386    -0.1251019    -4.4656093
25
097_C11H12N2_17-0-9-10 (-75,) energy =    -535.8947099
C           2.6395491    -1.6561509    -0.4909929
H           3.0876809    -2.5823883    -0.8724713
H           1.9718113    -1.9437678     0.3261933
C           5.7089551     0.9921283     1.0565336
H           6.4727431     1.6604361     1.4450215
C           4.5636351     0.7213707     1.8058677
H           4.4289836     1.1803516     2.7818788
C           3.5847871    -0.1384982     1.3049174
H           2.6891706    -0.3365805     1.8883575
C           3.7341456    -0.7454245     0.0527437
C           4.8857020    -0.4609844    -0.6933025
H           5.0270578    -0.9247519    -1.6668120
C           5.8668524     0.3972082    -0.1967955
H           6.7559875     0.5999557    -0.7884454
C           0.2308202     0.1440780    -2.4864789
H          -0.6454363     0.7750884    -2.5550413
N           0.7269345    -0.2645820    -1.2723323
C           1.7763344    -1.0183617    -1.5472234
N           1.9744781    -1.1238217    -2.9061208
C           3.0252145    -1.8263005    -3.6225256
H           3.3816465    -2.6729896    -3.0324914
H           3.8731643    -1.1673217    -3.8422748
H           2.6257937    -2.2108807    -4.5648425
C           0.9825740    -0.3706235    -3.5094587
H           0.9108543    -0.2916707    -4.5844603
25
097_C11H12N2_17-0-9-10 (-60,) energy =    -535.8943488
C           2.8630466    -1.8432878    -0.5303321
H           3.3668076    -2.7437939    -0.9040258
H           2.2020450    -2.1742092     0.2770149
C           5.8270993     0.8526960     1.1347786
H           6.5724590     1.5224198     1.5552832
C           4.8531449     0.2816212     1.9535084
H           4.8333020     0.5057409     3.0169065
C           3.8961445    -0.5776980     1.4096295
H           3.1364784    -1.0154470     2.0528620
C           3.8954034    -0.8802422     0.0441005
C           4.8764463    -0.2970476    -0.7692776
H           4.8846634    -0.5030748    -1.8373052
C           5.8345716     0.5609704    -0.2312345
H           6.5864418     1.0042977    -0.8791694
C           0.4789045    -0.1194740    -2.6243200
H          -0.3593165     0.5553899    -2.7367345
N           0.9949449    -0.4208356    -1.3871206
C           1.9946149    -1.2543530    -1.6088066
N           2.1539704    -1.4999732    -2.9548316
C           3.0651418    -2.4337165    -3.5976330
H           2.6708659    -3.4567328    -3.5822681
H           4.0381223    -2.4231875    -3.1015115
H           3.2102244    -2.1303794    -4.6371547
C           1.1717063    -0.7759878    -3.6075833
H           1.0721818    -0.8022650    -4.6828848
25
097_C11H12N2_17-0-9-10 (-45,) energy =    -535.8946806
C           2.7251780    -1.7522764    -0.4635323
H           3.1695539    -2.7168608    -0.7446943
H           2.0211059    -1.9666893     0.3464972
C           5.8882640     0.7774202     1.0973826
H           6.6859694     1.3999768     1.4935974
C           5.0308539     0.0972358     1.9627335
H           5.1552165     0.1889626     3.0386679
C           4.0048206    -0.6983083     1.4501912
H           3.3374795    -1.2215673     2.1313688
C           3.8166220    -0.8293666     0.0694697
C           4.6808039    -0.1379575    -0.7894218
H           4.5363698    -0.2012002    -1.8650517
C           5.7074524     0.6586355    -0.2818553
H           6.3637756     1.1912636    -0.9653850
C           0.4682471    -0.1230661    -2.7629273
H          -0.3671522     0.5374968    -2.9537359
N           0.9040927    -0.3750977    -1.4842196
C           1.9236060    -1.2044973    -1.6103479
N           2.1728218    -1.4956527    -2.9335602
C           3.1372188    -2.4410271    -3.4740680
H           2.7581206    -3.4691278    -3.4353586
H           4.0758300    -2.3883182    -2.9176002
H           3.3431625    -2.1833686    -4.5155974
C           1.2304152    -0.8053361    -3.6750194
H           1.2018938    -0.8704108    -4.7529082
25
097_C11H12N2_17-0-9-10 (-30,) energy =    -535.8952124
C           2.5834947    -1.6600056    -0.3999858
H           2.9497149    -2.6812896    -0.5780162
H           1.8439128    -1.7397811     0.4029474
C           5.9395318     0.6905751     1.0388354
H           6.7847514     1.2662198     1.4064035
C           5.1823034    -0.0873119     1.9170133
H           5.4339095    -0.1187339     2.9740348
C           4.0950763    -0.8206672     1.4426429
H           3.5072891    -1.4203144     2.1345487
C           3.7428068    -0.7935887     0.0866938
C           4.5067463    -0.0070900    -0.7835842
H           4.2343494     0.0547328    -1.8336590
C           5.5954905     0.7297240    -0.3123826
H           6.1708212     1.3400962    -1.0038376
C           0.4539329    -0.1562965    -2.8966624
H          -0.3814928     0.4761584    -3.1661654
N           0.8059298    -0.3558987    -1.5829578
C           1.8505437    -1.1630102    -1.6115264
N           2.1964899    -1.4905159    -2.9037468
C           3.2270782    -2.4217427    -3.3357431
H           2.8835302    -3.4607317    -3.2678952
H           4.1248733    -2.3028904    -2.7243588
H           3.4889151    -2.2073500    -4.3744519
C           1.2926582    -0.8485906    -3.7310165
H           1.3400818    -0.9490380    -4.8055502
25
097_C11H12N2_17-0-9-10 (-15,) energy =    -535.8958329
C           2.4669254    -1.5570158    -0.3518881
H           2.7468518    -2.6179806    -0.4275197
H           1.7056403    -1.5013643     0.4330800
C           5.9816240     0.6243476     0.9751744
H           6.8637191     1.1592027     1.3167935
C           5.3155388    -0.2555946     1.8320461
H           5.6767899    -0.4078045     2.8459312
C           4.1824466    -0.9370712     1.3916752
H           3.6684363    -1.6187749     2.0665414
C           3.6897964    -0.7553365     0.0912696
C           4.3638516     0.1290886    -0.7575279
H           3.9865532     0.3046509    -1.7609662
C           5.5001116     0.8148483    -0.3190511
H           6.0043318     1.5032465    -0.9924820
C           0.4557695    -0.1910532    -3.0195416
H          -0.3747832     0.4122441    -3.3611660
N           0.7371806    -0.3295399    -1.6810071
C           1.7967747    -1.1154975    -1.6184381
N           2.2192893    -1.4887721    -2.8743145
C           3.3040825    -2.4002410    -3.2031250
H           2.9955396    -3.4466442    -3.0936981
H           4.1633178    -2.2114068    -2.5548608
H           3.6100693    -2.2325425    -4.2382583
C           1.3530391    -0.8992844    -3.7764809
H           1.4623532    -1.0428694    -4.8415925
25
097_C11H12N2_17-0-9-10 (0,) energy =    -535.8965678
C           2.3660146    -1.4591965    -0.3095098
H           2.5615744    -2.5409229    -0.2848789
H           1.5934584    -1.2749068     0.4452952
C           6.0042954     0.5736349     0.9163355
H           6.9151229     1.0741830     1.2337134
C           5.4269466    -0.4134825     1.7196019
H           5.8872908    -0.6848640     2.6662238
C           4.2592629    -1.0536810     1.3094087
H           3.8169234    -1.8226130     1.9400865
C           3.6406584    -0.7200414     0.0953417
C           4.2279461     0.2682721    -0.7015679
H           3.7571780     0.5533760    -1.6380179
C           5.4002225     0.9114623    -0.2935127
H           5.8371878     1.6808911    -0.9249118
C           0.4772409    -0.2206853    -3.1241657
H          -0.3385147     0.3627651    -3.5298454
N           0.6968527    -0.2983375    -1.7690627
C           1.7547540    -1.0761749    -1.6233430
N           2.2355155    -1.5022627    -2.8402308
C           3.3458811    -2.4116273    -3.0752700
H           3.0479742    -3.4554828    -2.9210360
H           4.1738810    -2.1728142    -2.4033588
H           3.6911883    -2.2951685    -4.1049983
C           1.4113425    -0.9567933    -3.8066001
H           1.5712623    -1.1455590    -4.8582087
25
097_C11H12N2_17-0-9-10 (15,) energy =    -535.8974382
C           2.2861197    -1.3699999    -0.2780016
H           2.4115192    -2.4562427    -0.1698373
H           1.5086312    -1.0810658     0.4390466
C           6.0102144     0.5513336     0.8626665
H           6.9414593     1.0276820     1.1573065
C           5.5288892    -0.5514851     1.5721620
H           6.0851088    -0.9391105     2.4218863
C           4.3359200    -1.1626944     1.1887191
H           3.9698887    -2.0243609     1.7439009
C           3.5964290    -0.6813350     0.0988186
C           4.0899181     0.4216194    -0.6077617
H           3.5254889     0.8147118    -1.4485292
C           5.2864282     1.0344802    -0.2272375
H           5.6507007     1.8929129    -0.7858163
C           0.5406830    -0.2225408    -3.2218582
H          -0.2420941     0.3606655    -3.6883180
N           0.7019946    -0.2440533    -1.8561304
C           1.7324527    -1.0404015    -1.6313876
N           2.2528503    -1.5308400    -2.8061975
C           3.3557872    -2.4672958    -2.9522231
H           3.0331861    -3.4981273    -2.7636528
H           4.1581736    -2.2107066    -2.2563476
H           3.7460698    -2.4036801    -3.9704141
C           1.4836251    -1.0108291    -3.8297858
H           1.6823940    -1.2507380    -4.8642080
25
097_C11H12N2_17-0-9-10 (30,) energy =    -535.8983372
C           3.5048318    -2.0030899    -1.4354750
H           3.9287179    -1.9604925    -2.4476291
H           3.6910296    -3.0191779    -1.0674942
C           5.6270873     0.8103295     1.0984021
H           6.1637719     1.5096417     1.7339562
C           6.2388140     0.2828973    -0.0399805
H           7.2549634     0.5709294    -0.2971098
C           5.5446307    -0.6116301    -0.8559330
H           6.0266779    -1.0166131    -1.7437192
C           4.2346863    -1.0004371    -0.5458754
C           3.6278946    -0.4611014     0.5959887
H           2.6137775    -0.7570460     0.8501765
C           4.3197247     0.4346721     1.4125953
H           3.8345349     0.8399173     2.2968884
C          -0.0917918    -2.1625989    -1.1688305
H          -0.9905622    -2.6370390    -0.7979680
N           1.1556623    -2.6668954    -0.8818444
C           2.0128083    -1.8574590    -1.4794980
N           1.3656478    -0.8378849    -2.1367453
C           1.9713090     0.2110899    -2.9411236
H           2.1855183    -0.1372501    -3.9585940
H           2.9004831     0.5468950    -2.4750874
H           1.2859695     1.0599176    -2.9983512
C           0.0116395    -1.0366941    -1.9440856
H          -0.7237616    -0.3689783    -2.3689231
25
097_C11H12N2_17-0-9-10 (45,) energy =    -535.8988633
C           3.4821920    -2.0539521    -1.3567373
H           3.9354751    -2.0830486    -2.3562291
H           3.6141212    -3.0530248    -0.9259108
C           5.5973258     0.8290891     1.0995811
H           6.1296315     1.5459792     1.7190420
C           6.1109800     0.4567179    -0.1425714
H           7.0462210     0.8823238    -0.4972958
C           5.4225862    -0.4639574    -0.9365589
H           5.8306959    -0.7533744    -1.9031413
C           4.2165330    -1.0264084    -0.5018038
C           3.7073281    -0.6430458     0.7469817
H           2.7701412    -1.0728820     1.0910581
C           4.3930061     0.2749819     1.5414733
H           3.9859706     0.5591114     2.5085159
C          -0.1235918    -2.0368547    -1.1689782
H          -1.0502809    -2.4483351    -0.7916930
N           1.0935642    -2.5801765    -0.8278523
C           1.9986048    -1.8453321    -1.4513220
N           1.4122978    -0.8363043    -2.1773802
C           2.0792391     0.1377750    -3.0261605
H           2.2963584    -0.2764020    -4.0181426
H           3.0136197     0.4589698    -2.5603151
H           1.4335643     1.0109683    -3.1448898
C           0.0468113    -0.9624580    -2.0027654
H          -0.6484980    -0.2877993    -2.4808021
25
097_C11H12N2_17-0-9-10 (60,) energy =    -535.8986380
C           3.5101210    -2.0618838    -1.3201882
H           3.9943248    -2.1318349    -2.3031886
H           3.5953810    -3.0488835    -0.8542409
C           5.6040149     0.8408895     1.1278731
H           6.1303862     1.5620465     1.7474349
C           5.9872517     0.6429666    -0.1979201
H           6.8158381     1.2075961    -0.6177584
C           5.3089526    -0.2873327    -0.9907643
H           5.6221491    -0.4479624    -2.0207311
C           4.2395593    -1.0259170    -0.4726506
C           3.8649250    -0.8224185     0.8634703
H           3.0320075    -1.3899605     1.2711435
C           4.5404380     0.1032627     1.6564978
H           4.2386092     0.2490218     2.6905168
C          -0.0953511    -1.8969578    -1.2229816
H          -1.0447990    -2.2505373    -0.8436213
N           1.0926719    -2.4656991    -0.8256416
C           2.0376634    -1.8043155    -1.4715581
N           1.5060596    -0.8198125    -2.2692155
C           2.2278105     0.0814073    -3.1528476
H           2.6086966    -0.4464022    -4.0351441
H           3.0660435     0.5415919    -2.6233698
H           1.5495724     0.8700097    -3.4852194
C           0.1332565    -0.8827308    -2.1157797
H          -0.5253085    -0.2117733    -2.6479210
25
097_C11H12N2_17-0-9-10 (75,) energy =    -535.8975766
C           3.4784094    -1.9912751    -1.3187831
H           3.9852913    -2.1097226    -2.2858542
H           3.5193543    -2.9614736    -0.8154165
C           5.5898165     0.9404876     1.0813180
H           6.1205742     1.6686634     1.6887921
C           5.7940814     0.8941725    -0.2973962
H           6.4889780     1.5835628    -0.7702216
C           5.1133467    -0.0468708    -1.0745001
H           5.2966716    -0.0913797    -2.1461828
C           4.2144089    -0.9458472    -0.4894183
C           4.0267745    -0.8983134     0.8991272
H           3.3316106    -1.5942671     1.3622722
C           4.7046026     0.0383644     1.6777746
H           4.5460232     0.0617283     2.7528401
C          -0.1201071    -1.7054593    -1.3024284
H          -1.0861346    -2.0113188    -0.9233526
N           1.0431188    -2.2864082    -0.8548707
C           2.0183831    -1.6940060    -1.5223772
N           1.5288093    -0.7485227    -2.3918382
C           2.2876735     0.1273033    -3.2688526
H           3.0308182    -0.4456275    -3.8319947
H           2.8024615     0.9096410    -2.7018177
H           1.6034360     0.5939776    -3.9805825
C           0.1529316    -0.7539036    -2.2498380
H          -0.4764698    -0.0994844    -2.8351669
25
097_C11H12N2_17-0-9-10 (90,) energy =    -535.8959282
C           3.4292341    -1.9678716    -1.2440964
H           3.9555815    -2.1232035    -2.1950547
H           3.4122523    -2.9312091    -0.7275154
C           5.6235361     0.8805338     1.1857062
H           6.1750619     1.5881770     1.7988832
C           5.6211560     1.0076721    -0.2037572
H           6.1765698     1.8121931    -0.6791605
C           4.9157876     0.0940575    -0.9894670
H           4.9449139     0.1877960    -2.0725591
C           4.1928577    -0.9518711    -0.4022967
C           4.2180150    -1.0794824     0.9925841
H           3.6665493    -1.8912687     1.4602316
C           4.9213829    -0.1691939     1.7814444
H           4.9256478    -0.2835779     2.8623307
C          -0.1454118    -1.4699946    -1.2755935
H          -1.1239087    -1.6707899    -0.8599154
N           0.9873305    -2.0483443    -0.7546383
C           1.9892792    -1.6057908    -1.4941992
N           1.5446017    -0.7626323    -2.4861600
C           2.3288789    -0.0448380    -3.4761283
H           3.1651992    -0.6616780    -3.8149759
H           2.7233733     0.8943430    -3.0730363
H           1.6968558     0.1772307    -4.3393609
C           0.1713125    -0.6720463    -2.3431523
H          -0.4257072    -0.0681585    -3.0109289
25
097_C11H12N2_17-0-9-10 (105,) energy =    -535.8946892
C           3.3977994    -1.8983420    -1.2085099
H           3.9380608    -2.0577487    -2.1502959
H           3.3461696    -2.8695897    -0.7080190
C           5.6393279     0.8391954     1.3040311
H           6.2027032     1.5215253     1.9348410
C           5.3953650     1.1589807    -0.0331113
H           5.7710615     2.0904548    -0.4490101
C           4.6741002     0.2811581    -0.8421980
H           4.5027475     0.5376002    -1.8850981
C           4.1792993    -0.9265593    -0.3320339
C           4.4371250    -1.2389373     1.0075057
H           4.0587715    -2.1716196     1.4183523
C           5.1582594    -0.3637646     1.8216033
H           5.3449664    -0.6246596     2.8601022
C          -0.1377704    -1.1730375    -1.2542888
H          -1.1142237    -1.2366838    -0.7925534
N           0.9718903    -1.7272308    -0.6639162
C           1.9777287    -1.4806822    -1.4841954
N           1.5558696    -0.7904781    -2.5988806
C           2.3426121    -0.3019196    -3.7184817
H           3.2011446    -0.9546835    -3.8898461
H           2.7036670     0.7181647    -3.5436895
H           1.7255862    -0.3058380    -4.6208391
C           0.1952212    -0.5881756    -2.4475099
H          -0.3836874    -0.0690215    -3.1973891
25
097_C11H12N2_17-0-9-10 (120,) energy =    -535.8943379
C           3.3422105    -1.8039352    -1.2509661
H           3.8968466    -1.9612091    -2.1847564
H           3.2532680    -2.7869670    -0.7776130
C           5.6397130     0.7818796     1.3688422
H           6.2192991     1.4263698     2.0243063
C           5.1618738     1.2666843     0.1491028
H           5.3673507     2.2919167    -0.1481326
C           4.4167181     0.4392611    -0.6898130
H           4.0374059     0.8348653    -1.6294344
C           4.1377292    -0.8862430    -0.3301415
C           4.6162579    -1.3582168     0.8964062
H           4.3988816    -2.3808297     1.1954981
C           5.3624763    -0.5333655     1.7407214
H           5.7228696    -0.9198136     2.6905654
C          -0.1378603    -0.8466858    -1.3708717
H          -1.1103899    -0.7747705    -0.9021441
N           0.9356817    -1.3948385    -0.7115802
C           1.9489261    -1.3238327    -1.5551215
N           1.5722726    -0.7373930    -2.7431456
C           2.3622650    -0.5667068    -3.9522822
H           2.3889974    -1.4859389    -4.5494139
H           3.3859472    -0.2774833    -3.7043375
H           1.9205029     0.2295826    -4.5558632
C           0.2263641    -0.4372988    -2.6269080
H          -0.3200644     0.0267679    -3.4349394
25
097_C11H12N2_17-0-9-10 (135,) energy =    -535.8946273
C           3.2551538    -1.8532776    -1.1468251
H           3.8238694    -2.1235905    -2.0470777
H           3.0982283    -2.7855709    -0.5953973
C           5.6868725     0.7847295     1.2973145
H           6.3027469     1.4393392     1.9081278
C           5.0043744     1.2917838     0.1898277
H           5.0845255     2.3458009    -0.0637065
C           4.2106788     0.4514647    -0.5909856
H           3.6638856     0.8657331    -1.4344079
C           4.0876194    -0.9100092    -0.2841789
C           4.7672607    -1.4040333     0.8349651
H           4.6701429    -2.4552522     1.0967960
C           5.5629062    -0.5670124     1.6192259
H           6.0793612    -0.9715305     2.4859014
C          -0.1802340    -0.7982132    -1.4914291
H          -1.1791272    -0.6968282    -1.0882277
N           0.8308382    -1.3754593    -0.7613760
C           1.8992324    -1.3356578    -1.5359777
N           1.6191899    -0.7423413    -2.7472893
C           2.4973579    -0.6042389    -3.8986997
H           2.5519228    -1.5341658    -4.4769819
H           3.5046026    -0.3258273    -3.5799932
H           2.1131201     0.1875913    -4.5458379
C           0.2780080    -0.4032475    -2.7212163
H          -0.2004366     0.0730354    -3.5645072
25
097_C11H12N2_17-0-9-10 (150,) energy =    -535.8951488
C           3.1211472    -1.8916592    -1.0156882
H           3.6838518    -2.2980419    -1.8685017
H           2.8881022    -2.7461881    -0.3728272
C           5.7373340     0.7868593     1.1850469
H           6.4003512     1.4486047     1.7358365
C           4.8704249     1.3020120     0.2211161
H           4.8515246     2.3701450     0.0201179
C           4.0150758     0.4519351    -0.4828103
H           3.3239514     0.8717832    -1.2086234
C           4.0148202    -0.9268028    -0.2399479
C           4.8798728    -1.4303810     0.7403223
H           4.8799833    -2.4970662     0.9545152
C           5.7366807    -0.5849117     1.4449129
H           6.3974433    -0.9970803     2.2032553
C          -0.2552089    -0.7527004    -1.5926127
H          -1.2783046    -0.6301238    -1.2627437
N           0.6874181    -1.3553701    -0.7939923
C           1.8093490    -1.3380258    -1.4899205
N           1.6305589    -0.7355919    -2.7154067
C           2.6026435    -0.6067372    -3.7898745
H           2.6916482    -1.5362169    -4.3645606
H           3.5827864    -0.3436459    -3.3847781
H           2.2848308     0.1918320    -4.4641456
C           0.2998225    -0.3643924    -2.7842674
H          -0.1055875     0.1255208    -3.6575289
25
097_C11H12N2_17-0-9-10 (165,) energy =    -535.8957978
C           3.0003074    -1.9124574    -0.8838759
H           3.5476318    -2.4559963    -1.6680459
H           2.6895218    -2.6678676    -0.1548461
C           5.7724886     0.7882472     1.0894455
H           6.4726698     1.4535733     1.5874044
C           4.7541898     1.3076393     0.2916521
H           4.6530855     2.3828351     0.1677181
C           3.8511088     0.4521484    -0.3455891
H           3.0466089     0.8721700    -0.9425802
C           3.9551848    -0.9352795    -0.1997815
C           4.9760223    -1.4453557     0.6154285
H           5.0619662    -2.5215768     0.7522256
C           5.8786650    -0.5954406     1.2518761
H           6.6613212    -1.0125142     1.8804624
C          -0.3032018    -0.7170631    -1.7109045
H          -1.3461760    -0.5766434    -1.4599480
N           0.5668339    -1.3301048    -0.8405443
C           1.7383457    -1.3337275    -1.4502694
N           1.6617917    -0.7353579    -2.6877201
C           2.7221626    -0.6209149    -3.6766907
H           2.8516567    -1.5552635    -4.2355973
H           3.6652077    -0.3629597    -3.1885173
H           2.4696476     0.1753489    -4.3805999
C           0.3466489    -0.3443132    -2.8591273
H           0.0166065     0.1486913    -3.7619271
25
097_C11H12N2_17-0-9-10 (180,) energy =    -535.8965980
C           2.8973469    -1.9094737    -0.7663557
H           3.4222785    -2.5709213    -1.4706570
H           2.5186543    -2.5579252     0.0315408
C           5.7856136     0.8043387     1.0121371
H           6.5122926     1.4725287     1.4664038
C           4.6410720     1.3172825     0.4041610
H           4.4678820     2.3902592     0.3858301
C           3.7049857     0.4576557    -0.1782569
H           2.8065361     0.8685786    -0.6296400
C           3.9028330    -0.9270623    -0.1675087
C           5.0538439    -1.4322613     0.4553583
H           5.2176022    -2.5079650     0.4820020
C           5.9878781    -0.5782152     1.0382049
H           6.8730704    -0.9911236     1.5152637
C          -0.3225698    -0.6638477    -1.8165706
H          -1.3753228    -0.4959909    -1.6322065
N           0.4795858    -1.2750421    -0.8818599
C           1.6855441    -1.3170375    -1.4197923
N           1.6967313    -0.7465937    -2.6719854
C           2.8223633    -0.6643368    -3.5891665
H           2.9766612    -1.6114104    -4.1197003
H           3.7327017    -0.4084901    -3.0416583
H           2.6285025     0.1204803    -4.3238361
C           0.4039802    -0.3313535    -2.9308567
H           0.1404269     0.1489761    -3.8619339
