17
170_C4H10N2O_1-0-5-6 (-165,) energy =    -343.1859428
N           1.5176174    -0.6015075    -0.0421337
C           0.7412967     0.4488818     0.5959495
H           1.3687490     0.9262910     1.3475093
H          -0.1466936     0.0254960     1.0819824
H           0.4087410     1.2042887    -0.1321856
C           2.8900021    -0.6168962     0.1593230
N           3.6131502    -1.4202129    -0.7116787
H           3.2422094    -1.5445019    -1.6430131
C           5.0655605    -1.4005853    -0.6110473
H           5.3505868    -1.5559962     0.4303557
H           5.5048960    -0.4490032    -0.9410668
H           5.4713078    -2.2141018    -1.2193849
O           3.4356958     0.0031011     1.0690946
C           0.8564040    -1.3763932    -1.0743049
H           0.8696681    -0.8883362    -2.0642585
H          -0.1919616    -1.5202175    -0.7931880
H           1.3133750    -2.3662969    -1.1596954
17
170_C4H10N2O_1-0-5-6 (-150,) energy =    -343.1844689
N           1.4807698    -0.6992165     0.0775243
C           0.7564140     0.4654527     0.5682815
H           1.3377775     0.9180049     1.3707612
H          -0.2217357     0.1620362     0.9592223
H           0.5949036     1.2099807    -0.2279158
C           2.8662236    -0.6942520     0.2456014
N           3.5909937    -1.3844593    -0.7085629
H           3.1911584    -1.4838757    -1.6299880
C           5.0433430    -1.3678641    -0.6295265
H           5.3447019    -1.5877857     0.3956690
H           5.4724241    -0.3944237    -0.9043264
H           5.4440567    -2.1377388    -1.2952847
O           3.4117607    -0.1293178     1.1893728
C           0.8448058    -1.4220824    -1.0088511
H           0.9008306    -0.8980520    -1.9804827
H          -0.2154255    -1.5564928    -0.7707865
H           1.2897457    -2.4151517    -1.1134161
17
170_C4H10N2O_1-0-5-6 (-135,) energy =    -343.1814305
N           1.4560294    -0.7633086     0.1584087
C           0.7918427     0.4866918     0.5144069
H           1.3320960     0.9428131     1.3438846
H          -0.2383192     0.2847093     0.8285862
H           0.7633602     1.1917259    -0.3333265
C           2.8527078    -0.7683736     0.3171727
N           3.5782255    -1.3135109    -0.7189200
H           3.1535342    -1.3789969    -1.6315300
C           5.0298612    -1.3234201    -0.6521525
H           5.3353441    -1.6236598     0.3513971
H           5.4666006    -0.3360920    -0.8554240
H           5.4183895    -2.0432390    -1.3784478
O           3.3937214    -0.3002282     1.3131918
C           0.8406641    -1.4670113    -0.9545085
H           0.9267302    -0.9338057    -1.9206037
H          -0.2274650    -1.5896710    -0.7466362
H           1.2784355    -2.4631438    -1.0581853
17
170_C4H10N2O_1-0-5-6 (-120,) energy =    -343.1773102
N           1.3899953    -0.8254101     0.2168919
C           0.7844891     0.4818248     0.4669527
H           1.2864371     0.9438533     1.3179385
H          -0.2768699     0.3577967     0.7090563
H           0.8644679     1.1486455    -0.4090421
C           2.7957304    -0.8499464     0.3909204
N           3.5373341    -1.2004675    -0.7094554
H           3.0957419    -1.2582338    -1.6138154
C           4.9857350    -1.2746956    -0.6422512
H           5.2702680    -1.5768130     0.3667193
H           5.4604584    -0.3068103    -0.8528590
H           5.3526130    -2.0136557    -1.3613728
O           3.3143142    -0.5235389     1.4513310
C           0.8067044    -1.5086616    -0.9279555
H           0.9239676    -0.9621185    -1.8844772
H          -0.2685042    -1.6274329    -0.7562233
H           1.2420291    -2.5058776    -1.0334542
17
170_C4H10N2O_1-0-5-6 (-105,) energy =    -343.1758961
N           1.4834257    -0.5729545    -0.6461978
C           1.0374220     0.5574145     0.1824823
H           1.8540504     1.2786477     0.2905985
H           0.7098484     0.2442122     1.1869670
H           0.2034182     1.0582940    -0.3203726
C           2.6557870    -1.1895539    -0.0512490
N           3.7807187    -0.8577346    -0.7403532
H           3.6447876    -0.3002001    -1.5709321
C           5.1076152    -1.2969499    -0.3551967
H           5.0062362    -1.8728373     0.5659514
H           5.7725648    -0.4436295    -0.1756184
H           5.5553873    -1.9358285    -1.1261542
O           2.6298236    -1.9228833     0.9261444
C           0.4051298    -1.5600463    -0.7919447
H          -0.4386205    -1.0794843    -1.2980615
H           0.0637112    -1.9657127     0.1719519
H           0.7513349    -2.3904184    -1.4148788
17
170_C4H10N2O_1-0-5-6 (-90,) energy =    -343.1775620
N           1.4601629    -0.6485001    -0.6655827
C           1.0993197     0.5515588     0.1043914
H           1.9586664     1.2259708     0.1667320
H           0.7675136     0.3113220     1.1281506
H           0.2878055     1.0768786    -0.4103011
C           2.6343192    -1.2860682    -0.1220743
N           3.7718823    -0.7967855    -0.6942692
H           3.6490269    -0.1680855    -1.4743376
C           5.1005020    -1.2280796    -0.3074690
H           4.9892931    -1.9158385     0.5321376
H           5.7216518    -0.3785013     0.0010848
H           5.6052168    -1.7528900    -1.1281083
O           2.6106537    -2.1822731     0.7092916
C           0.3294000    -1.5821345    -0.7217074
H          -0.5015125    -1.0856548    -1.2336860
H          -0.0045990    -1.9095762     0.2735859
H           0.6125536    -2.4674822    -1.2969551
17
170_C4H10N2O_1-0-5-6 (-75,) energy =    -343.1799537
N           1.4456972    -0.6411573    -0.6546262
C           1.1213389     0.6033467     0.0560892
H           1.9971795     1.2560362     0.0933995
H           0.7821439     0.4166629     1.0886485
H           0.3227571     1.1281195    -0.4791652
C           2.6407855    -1.2761719    -0.1961406
N           3.7681074    -0.6287368    -0.6281894
H           3.6468756     0.0491335    -1.3662651
C           5.1007551    -1.1083881    -0.3179651
H           5.0218077    -1.7805718     0.5375134
H           5.7622849    -0.2729334    -0.0635369
H           5.5424631    -1.6664663    -1.1545367
O           2.6586646    -2.3139427     0.4518301
C           0.3019775    -1.5571603    -0.6532476
H          -0.5308824    -1.0677222    -1.1689437
H          -0.0191969    -1.8362447     0.3611425
H           0.5619260    -2.4713720    -1.1904054
17
170_C4H10N2O_1-0-5-6 (-60,) energy =    -343.1825059
N           1.4532189    -0.6716989    -0.6242759
C           1.1460718     0.6095006     0.0193164
H           2.0395157     1.2341917     0.0748566
H           0.7585730     0.4713878     1.0421970
H           0.3868452     1.1405526    -0.5652883
C           2.6562321    -1.3103427    -0.2431464
N           3.7811412    -0.5553282    -0.4942180
H           3.6878163     0.1638395    -1.1976117
C           5.1003948    -1.1285137    -0.2907921
H           5.0922358    -1.7045860     0.6357828
H           5.8366658    -0.3236354    -0.2074366
H           5.3985576    -1.8039033    -1.1049935
O           2.7054455    -2.4490692     0.2044189
C           0.2979248    -1.5684305    -0.6256917
H          -0.5208871    -1.0765153    -1.1613417
H          -0.0430032    -1.8206661     0.3898643
H           0.5546523    -2.4970702    -1.1365677
17
170_C4H10N2O_1-0-5-6 (-45,) energy =    -343.1844003
N           1.4326301    -0.6865380    -0.5225094
C           1.1213277     0.6378639     0.0116113
H           2.0213923     1.2484930     0.0886594
H           0.6713936     0.5713636     1.0155416
H           0.4085848     1.1476718    -0.6469602
C           2.6609981    -1.2939117    -0.2275551
N           3.7599485    -0.4589992    -0.3436744
H           3.6633886     0.3087615    -0.9943554
C           5.0892486    -1.0410066    -0.2346970
H           5.1240407    -1.6784634     0.6500560
H           5.8215682    -0.2359149    -0.1250752
H           5.3582648    -1.6575092    -1.1037594
O           2.7668940    -2.4803356     0.0617357
C           0.2862284    -1.5893008    -0.5147872
H          -0.5270678    -1.1284595    -1.0858767
H          -0.0743585    -1.7983831     0.5042607
H           0.5651717    -2.5357306    -0.9770203
17
170_C4H10N2O_1-0-5-6 (-30,) energy =    -343.1853219
N           1.4443400    -0.7050968    -0.3881088
C           1.1654418     0.6675939     0.0105479
H           2.0819780     1.1734778     0.3158120
H           0.4768071     0.6840984     0.8685027
H           0.6980485     1.2350410    -0.8058082
C           2.6853677    -1.3080859    -0.2155980
N           3.7746882    -0.4456892    -0.2673830
H           3.6668099     0.3652424    -0.8619565
C           5.1065103    -1.0359455    -0.2592810
H           5.1842607    -1.7250737     0.5829201
H           5.8437722    -0.2372557    -0.1368353
H           5.3316058    -1.5991058    -1.1754848
O           2.8213548    -2.5165912    -0.0514964
C           0.2834599    -1.5814468    -0.4215742
H          -0.4724138    -1.1577884    -1.0934305
H          -0.1675874    -1.7024104     0.5754266
H           0.5875959    -2.5626683    -0.7834593
17
170_C4H10N2O_1-0-5-6 (-15,) energy =    -343.1858922
N           1.4456047    -0.7435100    -0.2446568
C           1.2166850     0.6668630     0.0154149
H           2.0490889     1.0904455     0.5827088
H           0.3104257     0.7812855     0.6220663
H           1.0755479     1.2540023    -0.9058758
C           2.6943569    -1.3405793    -0.2056598
N           3.7721402    -0.4611746    -0.2207511
H           3.6359985     0.4077810    -0.7194100
C           5.1081146    -1.0326068    -0.3264688
H           5.2293879    -1.7961863     0.4430956
H           5.8427306    -0.2389759    -0.1622504
H           5.2969265    -1.5047038    -1.3004967
O           2.8537382    -2.5575319    -0.1512415
C           0.2729178    -1.5930468    -0.3606497
H          -0.3602275    -1.2656533    -1.1962232
H          -0.3295962    -1.5659932     0.5587000
H           0.6056514    -2.6156209    -0.5339479
17
170_C4H10N2O_1-0-5-6 (0,) energy =    -343.1860788
N           1.4634885    -0.7359380    -0.2296647
C           1.2303624     0.6842525    -0.0503929
H           1.3270646     1.2630331    -0.9844768
H           1.9173992     1.0954213     0.6951621
H           0.2125266     0.8324353     0.3242841
C           2.7245953    -1.3090572    -0.2349335
N           3.7831251    -0.4270026    -0.0544287
H           3.6607020     0.5155185    -0.3971946
C           5.1346095    -0.9586315    -0.1660910
H           5.2240326    -1.8366442     0.4749339
H           5.8407372    -0.1945163     0.1715429
H           5.3932375    -1.2623768    -1.1899639
O           2.9064040    -2.5199995    -0.3405543
C           0.3258365    -1.5616396    -0.5983307
H          -0.0987879    -1.2538959    -1.5653327
H          -0.4624440    -1.4898045     0.1621583
H           0.6653818    -2.5941913    -0.6681844
17
170_C4H10N2O_1-0-5-6 (15,) energy =    -343.1858921
N           1.6605623    -0.8093793    -0.4143801
C           1.4509251     0.6277095    -0.4106080
H           0.5942038     0.8708656    -1.0503980
H           2.3242804     1.1419489    -0.8191894
H           1.2382821     1.0260210     0.5941613
C           2.9092186    -1.4049438    -0.4743260
N           3.9817203    -0.5605921    -0.2060074
H           3.8066371     0.1963600     0.4410201
C           5.3061457    -1.1603985    -0.1129790
H           5.4871948    -1.7609980    -1.0054447
H           5.4197769    -1.8158718     0.7614926
H           6.0504282    -0.3603959    -0.0627874
O           3.0735761    -2.5900996    -0.7531095
C           0.4832784    -1.6486261    -0.5558697
H          -0.0466553    -1.4343135    -1.4951250
H          -0.2126930    -1.4816048     0.2771826
H           0.8027086    -2.6899404    -0.5611647
17
170_C4H10N2O_1-0-5-6 (30,) energy =    -343.1853219
N           1.6481875    -0.7998084    -0.2661895
C           1.3994582     0.6280730    -0.4089325
H           0.7783464     0.8211046    -1.2963377
H           2.3362083     1.1707692    -0.5399133
H           0.8707185     1.0322485     0.4651049
C           2.8994733    -1.3747794    -0.4591223
N           3.9806134    -0.5541754    -0.1578617
H           3.8263479     0.1271940     0.5733753
C           5.3095483    -1.1505979    -0.1794093
H           5.4527998    -1.6640614    -1.1312894
H           5.4634728    -1.8841596     0.6239888
H           6.0534486    -0.3539734    -0.0874829
O           3.0491887    -2.5299306    -0.8453673
C           0.4890995    -1.6493698    -0.4934780
H           0.1175476    -1.5679976    -1.5266308
H          -0.3173913    -1.3535283     0.1878755
H           0.7650075    -2.6864005    -0.3073001
17
170_C4H10N2O_1-0-5-6 (45,) energy =    -343.1844004
N           1.6260942    -0.8073734    -0.1323093
C           1.3554983     0.6000206    -0.4193519
H           0.9823593     0.7364713    -1.4473941
H           2.2586911     1.2009191    -0.3093518
H           0.5951696     0.9823888     0.2715412
C           2.8742095    -1.3627070    -0.4466349
N           3.9600720    -0.5818476    -0.0868947
H           3.8127512     0.0459400     0.6918005
C           5.2943621    -1.1505199    -0.2054069
H           5.3979521    -1.6050202    -1.1918236
H           5.4958376    -1.9273574     0.5453533
H           6.0322548    -0.3498882    -0.1006270
O           3.0032207    -2.4713447    -0.9533579
C           0.4846925    -1.6750392    -0.4040369
H           0.2044352    -1.6757904    -1.4687554
H          -0.3708733    -1.3231837     0.1826111
H           0.7280788    -2.6973419    -0.1162239
17
170_C4H10N2O_1-0-5-6 (60,) energy =    -343.1825059
N           1.6388597    -0.8132033    -0.0283659
C           1.3811388     0.5730226    -0.4308415
H           1.0737886     0.6422399    -1.4873733
H           2.2756670     1.1838082    -0.2954768
H           0.5786363     0.9908189     0.1869295
C           2.8682516    -1.3824165    -0.4345230
N           3.9697828    -0.7067909     0.0436646
H           3.8218602    -0.1371851     0.8648477
C           5.3012692    -1.2481731    -0.1670997
H           5.3653466    -1.6320418    -1.1864182
H           5.5360324    -2.0737653     0.5193798
H           6.0411308    -0.4531774    -0.0349931
O           2.9528538    -2.4127797    -1.0907448
C           0.4877039    -1.6765624    -0.2896768
H           0.2264312    -1.7214310    -1.3578198
H          -0.3704531    -1.2867419     0.2679604
H           0.7050510    -2.6904295     0.0481252
17
170_C4H10N2O_1-0-5-6 (75,) energy =    -343.1799537
N           1.6289104    -0.7891340     0.0068168
C           1.3595349     0.5744013    -0.4699649
H           1.1023689     0.5972389    -1.5420708
H           2.2348456     1.2094086    -0.3115195
H           0.5209241     0.9959963     0.0944668
C           2.8562795    -1.3397109    -0.4746715
N           3.9464207    -0.8049808     0.1596719
H           3.7680965    -0.2822399     1.0046025
C           5.2994436    -1.2334662    -0.1367351
H           5.2874077    -1.7243073    -1.1108315
H           5.6759815    -1.9505792     0.6051808
H           5.9777854    -0.3738316    -0.1714989
O           2.9252109    -2.2313093    -1.3098561
C           0.4893161    -1.6708632    -0.2600847
H           0.2478854    -1.7428214    -1.3308310
H          -0.3812360    -1.2790347     0.2763179
H           0.7076403    -2.6756440     0.1068528
17
170_C4H10N2O_1-0-5-6 (90,) energy =    -343.1775620
N           1.6425934    -0.7985680     0.0171371
C           1.3412985     0.5335106    -0.5287665
H           1.0897593     0.5020391    -1.6019066
H           2.2023278     1.1948152    -0.3927643
H           0.4920099     0.9600420     0.0154827
C           2.8557461    -1.3347312    -0.5497869
N           3.9453108    -0.9825214     0.1915871
H           3.7621315    -0.5159255     1.0677150
C           5.3002060    -1.3489427    -0.1701543
H           5.2547079    -1.8583355    -1.1338809
H           5.7406407    -2.0306404     0.5680301
H           5.9424900    -0.4643983    -0.2588510
O           2.8970645    -2.0514865    -1.5394605
C           0.5116509    -1.7090088    -0.1961405
H           0.2557648    -1.8315186    -1.2586366
H          -0.3567316    -1.3099615     0.3383758
H           0.7502714    -2.6933962     0.2149160
17
170_C4H10N2O_1-0-5-6 (105,) energy =    -343.1758963
N           1.6642684    -0.7189584     0.0132184
C           1.2786565     0.5563144    -0.6091836
H           1.0278265     0.4492631    -1.6769829
H           2.0991275     1.2750060    -0.5137780
H           0.4079914     0.9596650    -0.0813370
C           2.8798435    -1.2220663    -0.6013806
N           3.9487348    -1.0446991     0.2211418
H           3.7474725    -0.6653096     1.1347689
C           5.3009285    -1.4236833    -0.1393880
H           5.2727285    -1.7993369    -1.1633577
H           5.6825931    -2.2141519     0.5183853
H           5.9809804    -0.5649774    -0.0887470
O           2.9302111    -1.7484848    -1.7032216
C           0.5810714    -1.7025475    -0.1162315
H           0.3150497    -1.9106381    -1.1632949
H          -0.3004007    -1.3187576     0.4079772
H           0.8807939    -2.6417440     0.3587436
17
170_C4H10N2O_1-0-5-6 (120,) energy =    -343.1773101
N           1.6340222    -0.7995024    -0.8926957
C           1.0513804     0.5410258    -0.9315567
H           0.0103399     0.4824396    -1.2681399
H           1.6153688     1.1481620    -1.6407127
H           1.0684355     1.0278676     0.0589525
C           3.0486449    -0.8133083    -0.9676342
N           3.7071148    -1.3783487     0.0957616
H           3.2005092    -1.5998212     0.9386773
C           5.1563654    -1.4621229     0.1189457
H           5.5130568    -1.5712476    -0.9062934
H           5.4679478    -2.3303633     0.7079081
H           5.6168210    -0.5599275     0.5438529
O           3.6440150    -0.2998949    -1.9067212
C           0.9670719    -1.6782848     0.0563210
H          -0.0929452    -1.7450320    -0.2112360
H           1.0152123    -1.3252872     1.1053532
H           1.3913706    -2.6842415     0.0006600
17
170_C4H10N2O_1-0-5-6 (135,) energy =    -343.1814305
N           1.6961708    -0.7508329    -0.8194025
C           1.0628397     0.5547060    -0.9770070
H           0.0578915     0.4329235    -1.3965151
H           1.6633685     1.1511836    -1.6636897
H           0.9742304     1.0862651    -0.0146507
C           3.1006987    -0.7484624    -0.8763016
N           3.7472440    -1.4922357     0.0858939
H           3.2568563    -1.7229130     0.9366677
C           5.1998493    -1.5129951     0.1220627
H           5.5770882    -1.6220503    -0.8959610
H           5.5325101    -2.3639419     0.7235817
H           5.6229988    -0.5895393     0.5404548
O           3.7141775    -0.1085658    -1.7237009
C           0.9994174    -1.6429570     0.0922473
H          -0.0509691    -1.7064431    -0.2107606
H           1.0159834    -1.3044243     1.1458966
H           1.4259963    -2.6476628     0.0350695
17
170_C4H10N2O_1-0-5-6 (150,) energy =    -343.1844689
N           1.7150870    -0.7036922    -0.7262527
C           1.0313794     0.5446551    -1.0363534
H           0.0836677     0.3370226    -1.5466519
H           1.6709293     1.1318304    -1.6943510
H           0.8139529     1.1269449    -0.1264074
C           3.1091302    -0.6895063    -0.7911353
N           3.7605567    -1.5601117     0.0631435
H           3.2942202    -1.8262087     0.9178349
C           5.2148347    -1.5525459     0.0924099
H           5.5897385    -1.5784988    -0.9317878
H           5.5639441    -2.4413703     0.6259146
H           5.6250924    -0.6562280     0.5777095
O           3.7235503     0.0354069    -1.5686021
C           0.9996959    -1.6092319     0.1543246
H          -0.0406599    -1.6785992    -0.1798574
H           0.9859508    -1.2802804     1.2095105
H           1.4333217    -2.6112340     0.0990727
17
170_C4H10N2O_1-0-5-6 (165,) energy =    -343.1859428
N           1.7433432    -0.6310943    -0.5878272
C           1.0182975     0.5339045    -1.0676481
H           0.1671494     0.2251001    -1.6874844
H           1.7001508     1.1350563    -1.6677736
H           0.6352941     1.1425931    -0.2344493
C           3.1267361    -0.6303537    -0.6902226
N           3.7823427    -1.5961815     0.0609514
H           3.3440498    -1.8890191     0.9226788
C           5.2382677    -1.5815241     0.0696499
H           5.5982279    -1.5409212    -0.9592779
H           5.5964870    -2.5023024     0.5390762
H           5.6546588    -0.7172620     0.6054732
O           3.7389577     0.1421553    -1.4238964
C           1.0065870    -1.5770133     0.2279277
H          -0.0187898    -1.6476850    -0.1494192
H           0.9486917    -1.2861471     1.2911438
H           1.4536646    -2.5724449     0.1553983
17
170_C4H10N2O_1-0-5-6 (180,) energy =    -343.1859119
N           1.7611497    -0.5416228    -0.4515088
C           1.0110957     0.5060632    -1.1240973
H           0.3175921     0.0810812    -1.8630228
H           1.7212600     1.1551089    -1.6347760
H           0.4295181     1.0981766    -0.4046694
C           3.1331504    -0.5903120    -0.6254747
N           3.7812288    -1.6191580     0.0486000
H           3.3603790    -1.9396289     0.9097582
C           5.2377690    -1.6293551     0.0292701
H           5.5782473    -1.5399701    -1.0030900
H           5.5870191    -2.5804706     0.4414679
H           5.6810521    -0.8031183     0.6023780
O           3.7446411     0.1878910    -1.3544851
C           1.0152811    -1.5522040     0.2775421
H          -0.0182830    -1.5593917    -0.0810349
H           0.9867565    -1.3661960     1.3633284
H           1.4330634    -2.5490279     0.1012792
