21
098_C10H9NO_17-0-9-10 (-165,) energy =    -516.4419409
C           2.9413557    -1.8468859    -1.0136887
H           3.4196966    -2.4675449    -1.7814743
H           2.6171464    -2.5236281    -0.2145909
C           5.8719539     0.8844255     0.6502562
H           6.6103628     1.5580986     1.0765349
C           4.5732937     1.3295133     0.4043618
H           4.2934068     2.3527585     0.6409478
C           3.6236892     0.4647848    -0.1442636
H           2.6124196     0.8206585    -0.3199606
C           3.9611412    -0.8550100    -0.4608486
C           5.2669634    -1.2944485    -0.2059222
H           5.5436193    -2.3194672    -0.4446981
C           6.2159887    -0.4341728     0.3445497
H           7.2247538    -0.7928803     0.5319986
C          -0.2604688    -0.5207089    -1.9975072
H          -1.3125735    -0.3322070    -1.8382521
N           0.5096431    -1.2015101    -1.0604464
C           1.6994180    -1.2442127    -1.5811157
O           1.7852919    -0.6396090    -2.8025837
C           0.5182354    -0.1812410    -3.0532239
H           0.3660956     0.3336672    -3.9882730
21
098_C10H9NO_17-0-9-10 (-150,) energy =    -516.4427450
C           2.8813551    -1.8565114    -0.8839004
H           3.3497873    -2.5724762    -1.5689798
H           2.4932194    -2.4308622    -0.0343700
C           5.8806343     0.8958418     0.6096516
H           6.6346058     1.5771919     0.9945757
C           4.5397020     1.2812846     0.5689981
H           4.2444158     2.2646593     0.9255916
C           3.5706394     0.4077960     0.0736520
H           2.5270380     0.7103231     0.0554982
C           3.9298101    -0.8613886    -0.3952369
C           5.2761162    -1.2415569    -0.3458940
H           5.5690227    -2.2258576    -0.7052926
C           6.2462440    -0.3710969     0.1523060
H           7.2874121    -0.6820443     0.1785941
C          -0.1900167    -0.4150013    -2.0971637
H          -1.2244061    -0.1227141    -1.9856995
N           0.5083547    -1.0371721    -1.0673373
C           1.6967236    -1.2410311    -1.5528068
O           1.8482347    -0.7989299    -2.8351971
C           0.6273952    -0.2725206    -3.1682854
H           0.5303018     0.1332817    -4.1625009
21
098_C10H9NO_17-0-9-10 (-135,) energy =    -516.4433819
C           2.8119147    -1.8586096    -0.7542662
H           3.2670192    -2.6520718    -1.3573366
H           2.3635377    -2.3341263     0.1254885
C           5.8771015     0.9103730     0.5596958
H           6.6461899     1.5995896     0.8979523
C           4.5268044     1.2297168     0.7209308
H           4.2411745     2.1689131     1.1875578
C           3.5391054     0.3464527     0.2862924
H           2.4892104     0.5972426     0.4151689
C           3.8869467    -0.8681354    -0.3192991
C           5.2410992    -1.1808682    -0.4752000
H           5.5238869    -2.1207447    -0.9443369
C           6.2317520    -0.2986843    -0.0389082
H           7.2793602    -0.5564998    -0.1708326
C          -0.1198529    -0.3452266    -2.2045065
H          -1.1348309     0.0227739    -2.1574059
N           0.5029723    -0.9161065    -1.0990776
C           1.6888715    -1.2400493    -1.5214798
O           1.9091167    -0.9275834    -2.8310358
C           0.7373009    -0.3546624    -3.2534819
H           0.6983229    -0.0359465    -4.2827514
21
098_C10H9NO_17-0-9-10 (-120,) energy =    -516.4435836
C           2.7418652    -1.8559602    -0.6321711
H           3.1796078    -2.7163396    -1.1504286
H           2.2351893    -2.2327323     0.2625316
C           5.8677047     0.9201530     0.5060124
H           6.6506375     1.6155205     0.7965950
C           4.5392792     1.1694443     0.8606000
H           4.2857076     2.0607307     1.4286195
C           3.5346116     0.2773745     0.4886131
H           2.5001418     0.4752865     0.7591494
C           3.8435459    -0.8776720    -0.2422422
C           5.1746258    -1.1182427    -0.5954725
H           5.4252324    -2.0101721    -1.1653424
C           6.1830012    -0.2261906    -0.2232342
H           7.2130293    -0.4282124    -0.5053083
C          -0.0455811    -0.3186777    -2.3216228
H          -1.0436432     0.0948863    -2.3478187
N           0.4967878    -0.8448734    -1.1533105
C           1.6848624    -1.2452925    -1.4955734
O           1.9817345    -1.0267915    -2.8086889
C           0.8587347    -0.4313113    -3.3238917
H           0.8836475    -0.1766454    -4.3712693
21
098_C10H9NO_17-0-9-10 (-105,) energy =    -516.4434555
C           2.6624449    -1.8287706    -0.4896067
H           3.0724386    -2.7527383    -0.9139582
H           2.1056200    -2.0980377     0.4128575
C           5.8720856     0.9196250     0.4625948
H           6.6752157     1.6111800     0.7027049
C           4.5994738     1.1055111     1.0081264
H           4.4087579     1.9431011     1.6739673
C           3.5697828     0.2165948     0.7018831
H           2.5779117     0.3669956     1.1217692
C           3.7975301    -0.8716235    -0.1505938
C           5.0732831    -1.0478566    -0.6955077
H           5.2610502    -1.8870870    -1.3613122
C           6.1063308    -0.1590812    -0.3905093
H           7.0932402    -0.3115988    -0.8195054
C          -0.0005127    -0.3580472    -2.4232632
H          -0.9944740     0.0513098    -2.5344051
N           0.4601213    -0.8376798    -1.2011013
C           1.6691123    -1.2466331    -1.4449773
O           2.0565082    -1.0764747    -2.7414806
C           0.9714617    -0.5044026    -3.3553600
H           1.0695798    -0.2875506    -4.4069366
21
098_C10H9NO_17-0-9-10 (-90,) energy =    -516.4432494
C           2.5867345    -1.7665597    -0.3944806
H           2.9675474    -2.7408062    -0.7247958
H           1.9865109    -1.9331335     0.5039605
C           5.8778179     0.9234750     0.4399020
H           6.7017579     1.6007627     0.6481089
C           4.6837277     1.0296844     1.1554609
H           4.5734880     1.7912749     1.9229662
C           3.6278531     0.1574229     0.8888680
H           2.6973973     0.2459775     1.4448012
C           3.7518427    -0.8337927    -0.0920118
C           4.9512411    -0.9310036    -0.8068498
H           5.0580406    -1.6940230    -1.5742375
C           6.0085696    -0.0593347    -0.5427337
H           6.9351219    -0.1498501    -1.1036471
C           0.0631574    -0.3751331    -2.5601894
H          -0.9112739     0.0521942    -2.7493389
N           0.4528179    -0.7678402    -1.2835479
C           1.6574990    -1.2283957    -1.4372934
O           2.1081705    -1.1750138    -2.7237464
C           1.0704380    -0.6227173    -3.4313351
H           1.2225174    -0.4931270    -4.4908170
21
098_C10H9NO_17-0-9-10 (-75,) energy =    -516.4430281
C           2.5220295    -1.6777214    -0.3197657
H           2.8691983    -2.6934025    -0.5489839
H           1.8867087    -1.7391857     0.5673445
C           5.9096023     0.9158211     0.4417687
H           6.7587402     1.5663669     0.6332872
C           4.8103512     0.9248834     1.3010083
H           4.7980162     1.5840862     2.1650349
C           3.7217318     0.0864843     1.0540197
H           2.8661086     0.1000593     1.7250252
C           3.7176420    -0.7727009    -0.0503109
C           4.8245859    -0.7734156    -0.9088422
H           4.8309242    -1.4314335    -1.7741126
C           5.9129998     0.0641057    -0.6650452
H           6.7654805     0.0497887    -1.3391696
C           0.1337464    -0.3930935    -2.6960578
H          -0.8091626     0.0650939    -2.9585334
N           0.4728934    -0.6603165    -1.3734448
C           1.6506254    -1.2030344    -1.4406402
O           2.1291544    -1.3231975    -2.7132764
C           1.1415976    -0.7949679    -3.5066714
H           1.3231845    -0.7950838    -4.5694126
21
098_C10H9NO_17-0-9-10 (-60,) energy =    -516.4427328
C           2.4476805    -1.5882037    -0.2615297
H           2.7569790    -2.6340660    -0.3892701
H           1.7835286    -1.5473028     0.6054190
C           5.9323604     0.8869133     0.4707782
H           6.8061702     1.5052850     0.6578153
C           4.9304926     0.7766375     1.4348779
H           5.0175189     1.3104750     2.3775909
C           3.8084974    -0.0178122     1.1904479
H           3.0286196    -0.0953671     1.9443845
C           3.6737195    -0.7150637    -0.0148131
C           4.6839042    -0.5962355    -0.9790178
H           4.5907127    -1.1257925    -1.9232547
C           5.8044902     0.1979347    -0.7374791
H           6.5797795     0.2787386    -1.4949936
C           0.2119408    -0.4007831    -2.8280898
H          -0.6778990     0.1117605    -3.1648725
N           0.5194503    -0.5196697    -1.4769384
C           1.6342626    -1.1848043    -1.4506111
O           2.0989352    -1.5266762    -2.6890679
C           1.1733543    -1.0108471    -3.5615888
H           1.3540334    -1.1757916    -4.6115943
21
098_C10H9NO_17-0-9-10 (-45,) energy =    -516.4422899
C           2.3729270    -1.4677863    -0.2110524
H           2.6319526    -2.5355491    -0.2279736
H           1.6856322    -1.3163772     0.6253240
C           5.9705649     0.8544030     0.4893369
H           6.8722762     1.4325453     0.6724866
C           5.0617853     0.6228565     1.5221924
H           5.2497274     1.0223710     2.5153483
C           3.9023318    -0.1160613     1.2814444
H           3.1943544    -0.2856672     2.0895854
C           3.6360847    -0.6401474     0.0112862
C           4.5530171    -0.4005097    -1.0205199
H           4.3619946    -0.7963895    -2.0136428
C           5.7109469     0.3404989    -0.7825448
H           6.4113382     0.5175417    -1.5946983
C           0.2648445    -0.4471774    -2.9503451
H          -0.5836511     0.0786752    -3.3644166
N           0.5475170    -0.4197239    -1.5892448
C           1.6134584    -1.1497498    -1.4589268
O           2.0674730    -1.6719811    -2.6378951
C           1.1895210    -1.2067792    -3.5848682
H           1.3705482    -1.5114318    -4.6031018
21
098_C10H9NO_17-0-9-10 (-30,) energy =    -516.4417469
C           2.2980313    -1.3404891    -0.1728282
H           2.4970254    -2.4170287    -0.0761252
H           1.5909090    -1.0751116     0.6180800
C           6.0034605     0.8169492     0.4988026
H           6.9313562     1.3532597     0.6782167
C           5.1781499     0.4619576     1.5671850
H           5.4582320     0.7230982     2.5843973
C           3.9848316    -0.2206961     1.3319542
H           3.3421321    -0.4853666     2.1689397
C           3.5991136    -0.5674585     0.0307561
C           4.4319607    -0.2056279    -1.0343150
H           4.1532937    -0.4648886    -2.0510865
C           5.6248895     0.4813564    -0.8013555
H           6.2581076     0.7556940    -1.6411189
C           0.3346884    -0.4946874    -3.0736121
H          -0.4675927     0.0333452    -3.5690469
N           0.5851767    -0.3340067    -1.7155821
C           1.5978116    -1.1097068    -1.4722601
O           2.0464870    -1.7858022    -2.5728378
C           1.2235056    -1.3758457    -3.5918647
H           1.4094807    -1.8018017    -4.5646909
21
098_C10H9NO_17-0-9-10 (-15,) energy =    -516.4413589
C           2.2151525    -1.2012032    -0.1295165
H           2.3381308    -2.2709624     0.0896427
H           1.4994313    -0.8095107     0.5997784
C           6.0306844     0.7708339     0.4996982
H           6.9846261     1.2620739     0.6713537
C           5.2771040     0.2999482     1.5772427
H           5.6406119     0.4244813     2.5939728
C           4.0517621    -0.3252179     1.3525292
H           3.4674430    -0.6834251     2.1977708
C           3.5583406    -0.4967037     0.0517789
C           4.3200162    -0.0223393    -1.0207992
H           3.9619759    -0.1462827    -2.0379428
C           5.5469435     0.6074954    -0.7976776
H           6.1235197     0.9715233    -1.6440895
C           0.3747496    -0.5721570    -3.1614939
H          -0.4019784    -0.0788596    -3.7282573
N           0.5767825    -0.3040007    -1.8124465
C           1.5709674    -1.0663762    -1.4694964
O           2.0522576    -1.8327219    -2.4939292
C           1.2718790    -1.5006086    -3.5721865
H           1.4885241    -2.0059916    -4.4996339
21
098_C10H9NO_17-0-9-10 (0,) energy =    -516.4413704
C           2.1401811    -1.0704899    -0.0907312
H           2.1904530    -2.1163550     0.2398220
H           1.4228161    -0.5658861     0.5654693
C           6.0488440     0.7272723     0.4802797
H           7.0264949     1.1748304     0.6373055
C           5.3671539     0.1337159     1.5455071
H           5.8119708     0.1169752     2.5371052
C           4.1137194    -0.4395408     1.3400528
H           3.5889597    -0.9001857     2.1748161
C           3.5167522    -0.4297821     0.0716099
C           4.2075544     0.1641805    -0.9885681
H           3.7667232     0.1836208    -1.9806665
C           5.4643963     0.7399121    -0.7852224
H           5.9850450     1.1987134    -1.6217238
C           0.4582812    -0.6418229    -3.2471118
H          -0.2686441    -0.1689986    -3.8919988
N           0.6148186    -0.2600979    -1.9192675
C           1.5549678    -1.0318478    -1.4630821
O           2.0435325    -1.9076729    -2.3910351
C           1.3275673    -1.6421983    -3.5297722
H           1.5598845    -2.2387603    -4.3973639
21
098_C10H9NO_17-0-9-10 (15,) energy =    -516.4418648
C           2.0692984    -0.9386842    -0.0583541
H           2.0428823    -1.9454934     0.3762785
H           1.3608422    -0.3273989     0.5128627
C           6.0605458     0.6840913     0.4540369
H           7.0590501     1.0893309     0.5939380
C           5.4415299    -0.0317269     1.4812019
H           5.9568333    -0.1880886     2.4253539
C           4.1624052    -0.5544288     1.2963904
H           3.6890331    -1.1165143     2.0990211
C           3.4765168    -0.3658440     0.0891222
C           4.1055288     0.3493822    -0.9347844
H           3.5897388     0.5101778    -1.8772041
C           5.3880900     0.8717603    -0.7531936
H           5.8605542     1.4259450    -1.5600284
C           0.5512495    -0.7149074    -3.3179261
H          -0.1164391    -0.2643448    -4.0383541
N           0.6695409    -0.2215995    -2.0229229
C           1.5407372    -0.9991077    -1.4527468
O           2.0189236    -1.9805631    -2.2731422
C           1.3724984    -1.7826305    -3.4652810
H           1.6086133    -2.4681756    -4.2633216
21
098_C10H9NO_17-0-9-10 (30,) energy =    -516.4426311
C           2.0044846    -0.8056022    -0.0400820
H           1.9048489    -1.7620575     0.4859077
H           1.3139407    -0.1020067     0.4401387
C           6.0662163     0.6442477     0.4244277
H           7.0825466     1.0082088     0.5488299
C           5.4983532    -0.1964068     1.3831676
H           6.0714086    -0.4929154     2.2578668
C           4.1955034    -0.6670992     1.2169827
H           3.7624812    -1.3291792     1.9639603
C           3.4375099    -0.2992754     0.0988500
C           4.0160564     0.5411621    -0.8593047
H           3.4392665     0.8373113    -1.7313015
C           5.3204749     1.0103614    -0.6969899
H           5.7540724     1.6627411    -1.4505012
C           0.6573676    -0.7916446    -3.3818663
H           0.0654930    -0.3625097    -4.1776971
N           0.7544366    -0.1833621    -2.1345511
C           1.5285977    -0.9680975    -1.4458824
O           1.9605745    -2.0600765    -2.1416071
C           1.3913260    -1.9305784    -3.3815638
H           1.6056167    -2.7088889    -4.0963308
21
098_C10H9NO_17-0-9-10 (45,) energy =    -516.4433272
C           1.9497699    -0.6697907    -0.0323673
H           1.7789537    -1.5645328     0.5765324
H           1.2844325     0.1140203     0.3477472
C           6.0717038     0.6024431     0.3957690
H           7.1034871     0.9246535     0.5076711
C           5.5380600    -0.3557542     1.2578191
H           6.1525841    -0.7862165     2.0442180
C           4.2132466    -0.7708990     1.1086559
H           3.8047214    -1.5229088     1.7802490
C           3.4041571    -0.2311861     0.1035422
C           3.9486062     0.7282732    -0.7600049
H           3.3292952     1.1515781    -1.5467663
C           5.2721672     1.1426735    -0.6141499
H           5.6800820     1.8885163    -1.2914491
C           0.7521337    -0.8959490    -3.4237152
H           0.2213640    -0.5122859    -4.2833166
N           0.8240537    -0.1836899    -2.2306899
C           1.5230911    -0.9406774    -1.4381868
O           1.9272501    -2.1105855    -2.0119601
C           1.4227003    -2.0649653    -3.2859362
H           1.6273379    -2.9143582    -3.9177252
21
098_C10H9NO_17-0-9-10 (60,) energy =    -516.4435821
C           1.9106216    -0.5611659    -0.0578828
H           1.6790963    -1.3858550     0.6253075
H           1.2697744     0.2835335     0.2160874
C           6.0758789     0.5595532     0.3518665
H           7.1191943     0.8448793     0.4568193
C           5.5634121    -0.5080101     1.0889680
H           6.2054692    -1.0598485     1.7705682
C           4.2222196    -0.8730406     0.9522554
H           3.8286159    -1.7075876     1.5281960
C           3.3787023    -0.1761325     0.0819719
C           3.9017411     0.8936658    -0.6566058
H           3.2538693     1.4347528    -1.3421191
C           5.2403694     1.2595203    -0.5223968
H           5.6318912     2.0923279    -1.1007648
C           0.8513140    -1.0622438    -3.4655803
H           0.3772235    -0.7398402    -4.3816315
N           0.9015623    -0.2441817    -2.3412027
C           1.5294929    -0.9514120    -1.4498782
O           1.9064611    -2.1854938    -1.8919394
C           1.4617225    -2.2392984    -3.1882801
H           1.6558812    -3.1521015    -3.7282207
21
098_C10H9NO_17-0-9-10 (75,) energy =    -516.4434466
C           1.8650927    -0.3854854    -0.0790440
H           1.5637848    -1.1261532     0.6710021
H           1.2637211     0.5137736     0.0838336
C           6.0810506     0.5163084     0.3429157
H           7.1380936     0.7455058     0.4481527
C           5.5511582    -0.6352519     0.9256853
H           6.1940855    -1.3083196     1.4868742
C           4.1919619    -0.9259976     0.7918707
H           3.7838847    -1.8246390     1.2487977
C           3.3471855    -0.0715232     0.0762866
C           3.8876288     1.0819755    -0.5066292
H           3.2391862     1.7485180    -1.0705603
C           5.2445769     1.3748529    -0.3744983
H           5.6488279     2.2749696    -0.8301853
C           0.8522604    -1.1842182    -3.4449142
H           0.3765362    -0.9496715    -4.3864917
N           0.8700703    -0.2781354    -2.3891810
C           1.5116487    -0.8932349    -1.4413772
O           1.9274429    -2.1466841    -1.7817325
C           1.4953031    -2.3168216    -3.0724172
H           1.7221503    -3.2626493    -3.5376264
21
098_C10H9NO_17-0-9-10 (90,) energy =    -516.4432332
C           1.8461522    -0.2599060    -0.1347708
H           1.4892042    -0.9179625     0.6668487
H           1.2802505     0.6735288    -0.0736761
C           6.0851577     0.4958077     0.3415398
H           7.1484798     0.6862812     0.4598940
C           5.5428788    -0.7279409     0.7378812
H           6.1828291    -1.4949800     1.1661867
C           4.1765240    -0.9695177     0.5892866
H           3.7590591    -1.9246638     0.8989990
C           3.3349358     0.0065817     0.0432067
C           3.8874435     1.2304983    -0.3524272
H           3.2429768     1.9942545    -0.7813291
C           5.2531844     1.4750491    -0.2042517
H           5.6664091     2.4315550    -0.5134123
C           0.8919075    -1.3323984    -3.4420937
H           0.4492885    -1.1706015    -4.4146283
N           0.9181906    -0.3321086    -2.4752176
C           1.5120129    -0.8773116    -1.4568654
O           1.8870956    -2.1721487    -1.6661976
C           1.4813939    -2.4472430    -2.9478470
H           1.6841833    -3.4398873    -3.3165586
21
098_C10H9NO_17-0-9-10 (105,) energy =    -516.4430237
C           3.2887354    -1.6047090    -1.7960176
H           3.6458567    -1.4902353    -2.8275052
H           3.3856180    -2.6600464    -1.5290909
C           5.6846469     0.8322339     0.8690290
H           6.2872082     1.4420956     1.5368028
C           5.1886226     1.3723153    -0.3196347
H           5.4042353     2.4051836    -0.5805324
C           4.4184326     0.5883155    -1.1783626
H           4.0325821     1.0150732    -2.1007044
C           4.1309548    -0.7456042    -0.8610470
C           4.6320548    -1.2780413     0.3317924
H           4.4143869    -2.3118232     0.5895789
C           5.4042899    -0.4956552     1.1924944
H           5.7868104    -0.9255828     2.1144873
C          -0.2778697    -1.2087829    -1.4451713
H          -1.2521625    -1.5333578    -1.1085455
N           0.8644504    -1.9699905    -1.2187118
C           1.8274209    -1.2829123    -1.7542762
O           1.4167071    -0.1141768    -2.3275065
C           0.0608669    -0.0825600    -2.1169002
H          -0.4682252     0.7745382    -2.5013779
21
098_C10H9NO_17-0-9-10 (120,) energy =    -516.4427518
C           3.2564775    -1.6572046    -1.6912938
H           3.6556740    -1.6373527    -2.7139867
H           3.3010733    -2.6919767    -1.3425873
C           5.7262164     0.8361005     0.8554831
H           6.3509473     1.4580416     1.4909267
C           5.0432453     1.3992098    -0.2249680
H           5.1353168     2.4619126    -0.4339169
C           4.2422139     0.6021374    -1.0421341
H           3.7123482     1.0481267    -1.8794214
C           4.1089158    -0.7700675    -0.7899816
C           4.7977814    -1.3249667     0.2937120
H           4.7019646    -2.3882470     0.5008164
C           5.6016838    -0.5291804     1.1124411
H           6.1280621    -0.9777917     1.9508598
C          -0.2971170    -1.0811342    -1.4983713
H          -1.2903077    -1.3160307    -1.1429396
N           0.8087296    -1.8410175    -1.1320820
C           1.8097859    -1.2780933    -1.7377979
O           1.4567626    -0.1943236    -2.4908600
C           0.0992721    -0.0813245    -2.3215883
H          -0.3877270     0.7261568    -2.8442424
21
098_C10H9NO_17-0-9-10 (135,) energy =    -516.4423479
C           3.1999125    -1.7085585    -1.5727541
H           3.6358299    -1.7948600    -2.5775265
H           3.1817522    -2.7126803    -1.1411652
C           5.7776845     0.8234516     0.8285285
H           6.4328657     1.4517204     1.4259297
C           4.9241382     1.3957792    -0.1166513
H           4.9134335     2.4733573    -0.2588487
C           4.0819985     0.5909335    -0.8843116
H           3.4241591     1.0465546    -1.6186995
C           4.0762323    -0.7999086    -0.7149146
C           4.9366163    -1.3642409     0.2336535
H           4.9415087    -2.4424063     0.3770649
C           5.7822327    -0.5609177     1.0006018
H           6.4403173    -1.0183645     1.7347412
C          -0.3263527    -0.9617795    -1.5795515
H          -1.3396432    -1.1100689    -1.2343306
N           0.7323639    -1.7114852    -1.0789751
C           1.7766893    -1.2720042    -1.7131849
O           1.4950625    -0.2800940    -2.6106594
C           0.1391758    -0.0924172    -2.5080521
H          -0.2948828     0.6597768    -3.1469542
21
098_C10H9NO_17-0-9-10 (150,) energy =    -516.4418092
C           3.1442367    -1.7583407    -1.4393581
H           3.6097807    -1.9634554    -2.4134509
H           3.0586611    -2.7161841    -0.9186153
C           5.8141972     0.8310558     0.7961629
H           6.4937089     1.4711351     1.3523866
C           4.8099630     1.3901350     0.0051680
H           4.7044427     2.4700579    -0.0586518
C           3.9351248     0.5695190    -0.7091266
H           3.1634513     1.0186205    -1.3268720
C           4.0474438    -0.8239439    -0.6377988
C           5.0600318    -1.3755464     0.1572510
H           5.1582414    -2.4569678     0.2242808
C           5.9378281    -0.5574030     0.8684834
H           6.7138777    -1.0056913     1.4834078
C          -0.3375487    -0.8573379    -1.6663972
H          -1.3682212    -0.9207762    -1.3476128
N           0.6661591    -1.5889925    -1.0417923
C           1.7520015    -1.2719223    -1.6794997
O           1.5495343    -0.3782044    -2.6944316
C           0.2012667    -0.1224695    -2.6686820
H          -0.1739450     0.5691348    -3.4057821
21
098_C10H9NO_17-0-9-10 (165,) energy =    -516.4413710
C           3.0648530    -1.7963982    -1.2934636
H           3.5455661    -2.1438525    -2.2183708
H           2.8981374    -2.6815465    -0.6718443
C           5.8404650     0.8410910     0.7507150
H           6.5453279     1.4905510     1.2627181
C           4.7127529     1.3768537     0.1300758
H           4.5342515     2.4487086     0.1553811
C           3.8049322     0.5432072    -0.5277111
H           2.9359080     0.9775022    -1.0119582
C           4.0099269    -0.8394554    -0.5697893
C           5.1470222    -1.3684191     0.0562695
H           5.3191092    -2.4426831     0.0340871
C           6.0558762    -0.5382979     0.7102551
H           6.9296633    -0.9691399     1.1921952
C          -0.3472777    -0.7415965    -1.7674002
H          -1.3940291    -0.7270180    -1.4991017
N           0.5847348    -1.4686019    -1.0354995
C           1.7155203    -1.2587160    -1.6391075
O           1.6103452    -0.4421181    -2.7302828
C           0.2785409    -0.1194075    -2.7953450
H          -0.0230509     0.5277614    -3.6032479
21
098_C10H9NO_17-0-9-10 (180,) energy =    -516.4413796
C           3.0094246    -1.8166280    -1.1528432
H           3.4941876    -2.3151864    -2.0027610
H           2.7566414    -2.5998935    -0.4300611
C           5.8721202     0.8712308     0.6951471
H           6.5961845     1.5324094     1.1634808
C           4.6476219     1.3693308     0.2528163
H           4.4110207     2.4230132     0.3756868
C           3.7157152     0.5201097    -0.3496286
H           2.7663303     0.9245808    -0.6872058
C           3.9961148    -0.8388040    -0.5190725
C           5.2294128    -1.3306711    -0.0690073
H           5.4609439    -2.3869728    -0.1915238
C           6.1605999    -0.4859520     0.5319813
H           7.1111516    -0.8871885     0.8738397
C          -0.3074782    -0.6271135    -1.9000772
H          -1.3650812    -0.5390250    -1.6961858
N           0.5405512    -1.3458231    -1.0647462
C           1.7130411    -1.2385930    -1.6137537
O           1.7148016    -0.4977534    -2.7618028
C           0.4092464    -0.1136095    -2.9290264
H           0.1895253     0.4884237    -3.7961169
