19
245_C7H8N2O2_0-2-8-9 (-165,) energy =    -531.5420338
N           1.6558213    -0.6674497    -1.8973048
H           2.3943840    -0.5010756    -2.5779295
C           1.8667489    -0.1864195    -0.6457811
C           5.8328524     1.1423278     0.3724008
H           6.8464445     1.4772983     0.5640460
N           5.5034569     0.9418086    -0.9338304
H           6.1900104     1.0878633    -1.6658399
C           4.2600834     0.4930978    -1.4083105
C           3.2690202     0.2937743    -0.3610651
C           3.6132765     0.4884718     0.9558270
H           2.8380267     0.3099676     1.6954748
C           4.9056939     0.9184664     1.3499536
H           5.1583244     1.0703063     2.3921824
O           1.0144660    -0.1872925     0.2438044
C           0.3511792    -1.1370753    -2.3210915
H           0.4702710    -1.9483774    -3.0457040
H          -0.2450564    -0.3381802    -2.7833212
H          -0.1877968    -1.5042262    -1.4461515
O           4.1242077     0.3141119    -2.6260834
19
245_C7H8N2O2_0-2-8-9 (-150,) energy =    -531.5395697
N           1.6996370    -0.7268525    -1.8618373
H           2.4403092    -0.5880446    -2.5459787
C           1.8492048    -0.0589264    -0.6862529
C           5.8489113     1.1148178     0.3799412
H           6.8714149     1.4150589     0.5813883
N           5.5024506     1.0054339    -0.9335114
H           6.1893507     1.1687129    -1.6615133
C           4.2494412     0.5970097    -1.4185650
C           3.2560005     0.3889562    -0.3753745
C           3.6193781     0.4758444     0.9470768
H           2.8494229     0.2757065     1.6867902
C           4.9283368     0.8455953     1.3517791
H           5.1967089     0.9199673     2.3984493
O           0.9514902     0.0778590     0.1444092
C           0.3941053    -1.1854742    -2.3002020
H           0.5168342    -2.0399229    -2.9719958
H          -0.1682831    -0.4009154    -2.8253479
H          -0.1817600    -1.4893875    -1.4244787
O           4.1026544     0.4505207    -2.6385936
19
245_C7H8N2O2_0-2-8-9 (-135,) energy =    -531.5354462
N           1.7250265    -0.7931261    -1.8089345
H           2.4737868    -0.7065651    -2.4916428
C           1.8260071     0.0446280    -0.7366677
C           5.8494298     1.0754104     0.3798375
H           6.8790581     1.3431347     0.5905228
N           5.4886039     1.0611550    -0.9351459
H           6.1751831     1.2446268    -1.6585961
C           4.2260680     0.6946471    -1.4298389
C           3.2327204     0.4661013    -0.3908480
C           3.6121928     0.4406054     0.9285956
H           2.8510633     0.2061947     1.6676638
C           4.9346589     0.7554696     1.3411184
H           5.2157961     0.7511154     2.3870418
O           0.8880461     0.3129060     0.0104418
C           0.4212251    -1.2437850    -2.2677447
H           0.5458603    -2.1471370    -2.8711993
H          -0.0975743    -0.4834765    -2.8677830
H          -0.1970003    -1.4699578    -1.3974190
O           4.0650501     0.5886198    -2.6508292
19
245_C7H8N2O2_0-2-8-9 (-120,) energy =    -531.5301586
N           1.7277407    -0.8594052    -1.7307664
H           2.5070306    -0.8838700    -2.3810448
C           1.8012914     0.1331476    -0.7920442
C           5.8322392     1.0509180     0.3883468
H           6.8648984     1.2978433     0.6092832
N           5.4620620     1.1337059    -0.9223500
H           6.1464098     1.3595340    -1.6357842
C           4.1938019     0.8047838    -1.4314834
C           3.2067623     0.5218238    -0.3999479
C           3.5951372     0.3883204     0.9089051
H           2.8449151     0.1015826     1.6410558
C           4.9247737     0.6656522     1.3317168
H           5.2148038     0.5833353     2.3719863
O           0.8308478     0.5519425    -0.1694182
C           0.4305853    -1.2868414    -2.2349437
H           0.5364011    -2.2661047    -2.7096776
H           0.0095784    -0.5795810    -2.9623902
H          -0.2609628    -1.3633937    -1.3945175
O           4.0173795     0.7630492    -2.6521157
19
245_C7H8N2O2_0-2-8-9 (-105,) energy =    -531.5253016
N           1.6978906    -0.9490462    -1.6076726
H           2.5289741    -1.2151689    -2.1217439
C           1.8106547     0.1868501    -0.8516935
C           5.8394363     1.0524508     0.3835378
H           6.8684008     1.3061723     0.6141973
N           5.4503086     1.2318670    -0.9123405
H           6.1163759     1.5464452    -1.6090757
C           4.1774237     0.9291519    -1.4321399
C           3.2221263     0.5096772    -0.4165491
C           3.6239028     0.2933928     0.8749466
H           2.8986439    -0.0728736     1.5973613
C           4.9536184     0.5728683     1.3030466
H           5.2583582     0.4187610     2.3308390
O           0.8480024     0.8181372    -0.4348886
C           0.4174326    -1.3073351    -2.2028085
H           0.4271968    -2.3686053    -2.4657835
H           0.1953667    -0.7151405    -3.1004318
H          -0.3670724    -1.1227483    -1.4676393
O           3.9678556     1.0168085    -2.6417284
19
245_C7H8N2O2_0-2-8-9 (-90,) energy =    -531.5231621
N           1.6162109    -1.1406280    -1.5700704
H           2.4448596    -1.6630606    -1.8191350
C           1.8006676     0.0999413    -1.0270980
C           5.7934009     1.0341522     0.2712058
H           6.8059529     1.3324932     0.5207539
N           5.3807801     1.3087495    -1.0002928
H           6.0090458     1.7561005    -1.6582912
C           4.1134388     1.0027392    -1.5383372
C           3.2169676     0.3774400    -0.5733057
C           3.6378274     0.0866083     0.6964524
H           2.9481221    -0.3937391     1.3867058
C           4.9502503     0.4156996     1.1463387
H           5.2723653     0.1921114     2.1559001
O           0.8986101     0.9070202    -0.8519319
C           0.3536307    -1.5271957    -2.1790833
H           0.1611484    -2.5896765    -2.0004031
H           0.3452673    -1.3377226    -3.2602923
H          -0.4343718    -0.9316769    -1.7165742
O           3.8666598     1.2507284    -2.7147527
19
245_C7H8N2O2_0-2-8-9 (-75,) energy =    -531.5228944
N           1.6053325    -1.1968333    -1.5015544
H           2.3947312    -1.8235305    -1.5683435
C           1.8553351     0.0989055    -1.1410857
C           5.7813406     1.0093783     0.3555622
H           6.7726461     1.3194986     0.6684006
N           5.3952616     1.3973276    -0.8938789
H           6.0211337     1.9383453    -1.4798221
C           4.1539398     1.1091871    -1.5026755
C           3.2587689     0.3441679    -0.6387009
C           3.6559660    -0.0580863     0.6090194
H           2.9666124    -0.6316192     1.2248114
C           4.9397380     0.2718888     1.1346205
H           5.2401522    -0.0404099     2.1271596
O           1.0174816     0.9885006    -1.1695379
C           0.3370578    -1.6079584    -2.0794131
H          -0.0213879    -2.5294186    -1.6077761
H           0.4190028    -1.7696386    -3.1615672
H          -0.3788605    -0.8052661    -1.8984723
O           3.9352103     1.4765680    -2.6508330
19
245_C7H8N2O2_0-2-8-9 (-60,) energy =    -531.5230824
N           1.5862208    -1.2040012    -1.4305463
H           2.3424615    -1.8719743    -1.3853843
C           1.8988238     0.1211373    -1.2652681
C           5.7683022     1.0116529     0.3838992
H           6.7426832     1.3217031     0.7463882
N           5.3972146     1.4930707    -0.8357897
H           6.0221963     2.0926699    -1.3627620
C           4.1787726     1.2225508    -1.5020827
C           3.2843456     0.3653212    -0.7239104
C           3.6707403    -0.1290046     0.4954817
H           2.9823018    -0.7662268     1.0463146
C           4.9315866     0.1885004     1.0785738
H           5.2177483    -0.1968892     2.0493505
O           1.1152296     1.0342879    -1.4789501
C           0.3102116    -1.6318649    -1.9773504
H          -0.1120270    -2.4483176    -1.3811509
H           0.4058633    -1.9645218    -3.0187139
H          -0.3620077    -0.7734791    -1.9452938
O           3.9887053     1.6733180    -2.6233042
19
245_C7H8N2O2_0-2-8-9 (-45,) energy =    -531.5228822
N           1.5568446    -1.2016057    -1.2983731
H           2.2735591    -1.9048526    -1.1848414
C           1.9646303     0.1113935    -1.3611325
C           5.7816624     0.9828405     0.4234371
H           6.7443103     1.2853042     0.8222180
N           5.4372758     1.5073403    -0.7842397
H           6.0726973     2.1261325    -1.2754079
C           4.2380970     1.2530796    -1.4966640
C           3.3243893     0.3680472    -0.7694066
C           3.6904739    -0.1712358     0.4394240
H           2.9901597    -0.8265738     0.9520320
C           4.9330032     0.1289585     1.0657650
H           5.1963169    -0.2905843     2.0287882
O           1.2533013     1.0081429    -1.7888882
C           0.2861434    -1.6137801    -1.8722492
H          -0.0838645    -2.5010839    -1.3498055
H           0.3660310    -1.8364764    -2.9447428
H          -0.4233816    -0.7948043    -1.7473224
O           4.0881950     1.7405139    -2.6070079
19
245_C7H8N2O2_0-2-8-9 (-30,) energy =    -531.5217820
N           1.5267604    -1.2060940    -1.2244433
H           2.2028066    -1.9285989    -1.0175369
C           2.0182156     0.0575920    -1.4888935
C           5.7752319     1.0010363     0.3980059
H           6.7254616     1.3132175     0.8187613
N           5.4299017     1.5580499    -0.7924483
H           6.0554224     2.2065564    -1.2574683
C           4.2466077     1.2966386    -1.5343213
C           3.3418644     0.3669769    -0.8468643
C           3.7151228    -0.2033127     0.3477039
H           3.0247713    -0.8855283     0.8373779
C           4.9402957     0.1043559     1.0000433
H           5.2013250    -0.3421872     1.9514227
O           1.3754415     0.8836697    -2.1193900
C           0.2750952    -1.6297800    -1.8341817
H          -0.0882049    -2.5246938    -1.3213974
H           0.3814594    -1.8453316    -2.9058994
H          -0.4561481    -0.8273382    -1.7248831
O           4.1106059     1.8212255    -2.6279694
19
245_C7H8N2O2_0-2-8-9 (-15,) energy =    -531.5196593
N           1.4742111    -1.1731750    -1.1467202
H           2.0948261    -1.9065691    -0.8322095
C           2.0609477     0.0118009    -1.5619895
C           5.7772643     1.0110852     0.3959084
H           6.7216116     1.3261795     0.8278815
N           5.4091335     1.6157117    -0.7613008
H           6.0100220     2.3073201    -1.1959093
C           4.2259134     1.3638686    -1.5126666
C           3.3492958     0.3697058    -0.8742484
C           3.7517449    -0.2452317     0.2904171
H           3.0875307    -0.9657826     0.7599282
C           4.9681152     0.0632263     0.9546063
H           5.2437544    -0.4240552     1.8814403
O           1.5027091     0.7511288    -2.3587658
C           0.2493641    -1.6133602    -1.8002897
H          -0.1904953    -2.4276812    -1.2178035
H           0.4185624    -1.9551289    -2.8304470
H          -0.4491433    -0.7761416    -1.8371093
O           4.0753081     1.9584016    -2.5667334
19
245_C7H8N2O2_0-2-8-9 (0,) energy =    -531.5171628
N           0.8468371    -0.1178564    -1.1072115
H           0.8500827     0.8836137    -0.9789276
C           2.0583077    -0.7441107    -1.3530310
C           5.5810114     1.1923411     0.2496867
H           6.5134829     1.6187777     0.6051926
N           5.6737158     0.0598416    -0.4880449
H           6.5780335    -0.3504621    -0.6936159
C           4.5965708    -0.6780870    -1.0617656
C           3.2789809    -0.0891641    -0.7619736
C           3.2145933     1.0678568    -0.0159708
H           2.2450655     1.4905004     0.2317856
C           4.3532431     1.7316470     0.5091647
H           4.2563033     2.6326086     1.1017558
O           2.0983442    -1.8120797    -1.9462021
C          -0.3552111    -0.6680669    -1.7185661
H          -1.2295278    -0.1846837    -1.2738865
H          -0.3939374    -1.7399858    -1.5190035
H          -0.3789373    -0.5288964    -2.8080454
O           4.8729269    -1.6717873    -1.7110755
19
245_C7H8N2O2_0-2-8-9 (15,) energy =    -531.5196619
N           0.8789616    -0.0671240    -1.1909188
H           0.9619419     0.9379332    -1.2605763
C           2.0509332    -0.8026450    -1.2661378
C           5.5740630     1.1833450     0.2460099
H           6.5072153     1.6167386     0.5910190
N           5.6723124     0.0890739    -0.5498957
H           6.5806288    -0.2747030    -0.8161750
C           4.5951361    -0.6405139    -1.1284344
C           3.2782569    -0.1192641    -0.7300134
C           3.2023216     1.0038492     0.0632921
H           2.2234967     1.3691532     0.3620456
C           4.3436030     1.6770507     0.5735829
H           4.2471300     2.5453453     1.2132987
O           2.0471083    -1.9626147    -1.6504324
C          -0.3425386    -0.6445600    -1.7349600
H          -1.1910210    -0.0235325    -1.4349256
H          -0.4692321    -1.6497352    -1.3296393
H          -0.3207918    -0.7248837    -2.8301470
O           4.8617320    -1.5690816    -1.8727342
19
245_C7H8N2O2_0-2-8-9 (30,) energy =    -531.5217820
N           0.9055450    -0.0367005    -1.2880913
H           1.0461641     0.9486871    -1.4644367
C           2.0360343    -0.8225175    -1.1748054
C           5.5545411     1.2135999     0.2534773
H           6.4891028     1.6516793     0.5883026
N           5.6530758     0.1531965    -0.5906402
H           6.5611370    -0.1755201    -0.8995926
C           4.5737644    -0.5715124    -1.1640217
C           3.2641236    -0.0966496    -0.7005788
C           3.1809686     0.9903374     0.1379264
H           2.1989933     1.3189513     0.4688660
C           4.3261523     1.6685128     0.6378189
H           4.2343032     2.5089620     1.3144797
O           2.0064176    -2.0302107    -1.3583549
C          -0.3292139    -0.6255620    -1.7846575
H          -1.1618157     0.0475732    -1.5622403
H          -0.4893618    -1.5794268    -1.2796132
H          -0.2983389    -0.8174330    -2.8656695
O           4.8211317    -1.4578332    -1.9658938
19
245_C7H8N2O2_0-2-8-9 (45,) energy =    -531.5228822
N           0.9373096    -0.0522378    -1.3598387
H           1.1277172     0.9047992    -1.6224191
C           2.0143820    -0.8426545    -1.0292025
C           5.5481265     1.2404153     0.2695161
H           6.4888584     1.6839223     0.5785880
N           5.6301630     0.1983040    -0.6019503
H           6.5312981    -0.1128174    -0.9470125
C           4.5399730    -0.5289580    -1.1430753
C           3.2456680    -0.0770040    -0.6258559
C           3.1731634     0.9883261     0.2378269
H           2.1966767     1.3002527     0.6009341
C           4.3300577     1.6714115     0.7082362
H           4.2546025     2.4973124     1.4046272
O           1.9557914    -2.0625411    -0.9895584
C          -0.3087991    -0.6463437    -1.8160667
H          -1.1433527     0.0209478    -1.5806764
H          -0.4424096    -1.5950961    -1.2947502
H          -0.3038581    -0.8471279    -2.8958253
O           4.7559547    -1.4013057    -1.9709017
19
245_C7H8N2O2_0-2-8-9 (60,) energy =    -531.5230826
N           0.9681508    -0.0851400    -1.4875103
H           1.2151037     0.8404340    -1.8076011
C           1.9598387    -0.8485398    -0.9264381
C           5.5557016     1.1964500     0.2454110
H           6.5125809     1.6266139     0.5216157
N           5.5922261     0.1679220    -0.6478160
H           6.4761864    -0.1478938    -1.0308316
C           4.4742600    -0.5397402    -1.1488879
C           3.2084054    -0.0790519    -0.5781086
C           3.1772554     0.9673185     0.3077381
H           2.2184867     1.2865845     0.7105431
C           4.3615954     1.6306439     0.7412190
H           4.3237058     2.4460042     1.4529556
O           1.8379581    -2.0375777    -0.6717701
C          -0.2926427    -0.6600074    -1.9236241
H          -1.1348357    -0.0445475    -1.5886173
H          -0.3689222    -1.6530262    -1.4788416
H          -0.3372434    -0.7598089    -3.0155555
O           4.6371807    -1.4101395    -1.9928812
19
245_C7H8N2O2_0-2-8-9 (75,) energy =    -531.5228945
N           0.9921883    -0.1074374    -1.5537335
H           1.2963997     0.7620089    -1.9683211
C           1.9040529    -0.8076326    -0.8123784
C           5.5668854     1.1943145     0.2163055
H           6.5406743     1.6145762     0.4439974
N           5.5404144     0.2164841    -0.7343766
H           6.3957091    -0.0776003    -1.1923422
C           4.3902481    -0.4682523    -1.1846951
C           3.1703604    -0.0442637    -0.5026802
C           3.1980885     0.9496411     0.4395353
H           2.2703780     1.2454557     0.9245041
C           4.4117460     1.5939183     0.8205314
H           4.4252883     2.3704136     1.5753724
O           1.7130808    -1.9371543    -0.3858855
C          -0.2509958    -0.7026158    -2.0138781
H          -1.0918412    -0.0221099    -1.8410092
H          -0.4034433    -1.6201378    -1.4442241
H          -0.2087621    -0.9535599    -3.0811979
O           4.4843555    -1.3018138    -2.0776679
19
245_C7H8N2O2_0-2-8-9 (90,) energy =    -531.5231622
N           1.0365569    -0.1703175    -1.5987837
H           1.4429678     0.5718245    -2.1516683
C           1.8524637    -0.7942767    -0.6972223
C           5.5955986     1.1499249     0.1450810
H           6.5840531     1.5662773     0.3067937
N           5.4849077     0.2342474    -0.8607514
H           6.2938921    -0.0159976    -1.4181754
C           4.2989759    -0.4238970    -1.2476406
C           3.1503956    -0.0667201    -0.4235749
C           3.2589094     0.8649245     0.5735322
H           2.3785870     1.1190639     1.1594594
C           4.5002216     1.4963471     0.8795083
H           4.5804144     2.2246064     1.6771161
O           1.5500798    -1.8181986    -0.1006342
C          -0.1863579    -0.7926898    -2.0800722
H          -0.9521544    -0.0300700    -2.2527414
H          -0.5303221    -1.4866686    -1.3122309
H          -0.0223630    -1.3535904    -3.0093064
O           4.3046158    -1.1939846    -2.2033079
19
245_C7H8N2O2_0-2-8-9 (105,) energy =    -531.5253026
N           1.2111539    -0.2909612    -1.5837907
H           1.7797322     0.1623775    -2.2885539
C           1.8912989    -0.7907242    -0.5062014
C           5.6313462     1.1928435     0.2535085
H           6.6101971     1.6421883     0.3812130
N           5.4906574     0.3473410    -0.8087412
H           6.2602600     0.1980885    -1.4517763
C           4.3002371    -0.3072019    -1.1790926
C           3.2128902    -0.1094317    -0.2314873
C           3.3436075     0.7678632     0.8121825
H           2.4936381     0.9339237     1.4694155
C           4.5734804     1.4353465     1.0796786
H           4.6759745     2.1123491     1.9188083
O           1.4230586    -1.6192453     0.2642203
C          -0.0130372    -0.9333690    -2.0418507
H          -0.5981240    -0.2198771    -2.6287525
H          -0.5863805    -1.2400760    -1.1660591
H           0.1878553    -1.8234504    -2.6527255
O           4.2507017    -0.9531404    -2.2253737
19
245_C7H8N2O2_0-2-8-9 (120,) energy =    -531.5301603
N           1.3028191    -0.3802998    -1.6584474
H           1.9674797    -0.1924113    -2.4025713
C           1.8709668    -0.7252369    -0.4626569
C           5.6488674     1.2056049     0.2380399
H           6.6274662     1.6600254     0.3479189
N           5.4616336     0.4401616    -0.8759584
H           6.1909911     0.3664085    -1.5766246
C           4.2571399    -0.1876619    -1.2377588
C           3.2270600    -0.1103295    -0.2123116
C           3.4011339     0.7011404     0.8798613
H           2.5816629     0.7950246     1.5875588
C           4.6313016     1.3694641     1.1321771
H           4.7672277     1.9868511     2.0115711
O           1.2724583    -1.3238777     0.4251427
C           0.0209279    -0.9526232    -2.0441426
H          -0.4131042    -0.3489174    -2.8457615
H          -0.6422234    -0.9366863    -1.1778342
H           0.1118806    -1.9921329    -2.3873077
O           4.1538981    -0.7175160    -2.3474465
19
245_C7H8N2O2_0-2-8-9 (135,) energy =    -531.5354474
N           1.3358002    -0.4637987    -1.7122912
H           2.0418557    -0.3881729    -2.4402800
C           1.8274062    -0.6281312    -0.4501442
C           5.6617727     1.1902351     0.2478702
H           6.6496501     1.6238882     0.3584885
N           5.4324437     0.5035845    -0.9077605
H           6.1442292     0.4583714    -1.6286983
C           4.2134723    -0.0900887    -1.2747702
C           3.2049541    -0.0553651    -0.2259011
C           3.4270775     0.6729776     0.9167960
H           2.6241633     0.7222561     1.6471280
C           4.6713107     1.3061072     1.1799655
H           4.8400735     1.8609456     2.0946755
O           1.1602711    -1.0486751     0.4921737
C           0.0330363    -1.0028244    -2.0671393
H          -0.3286581    -0.5006333    -2.9685661
H          -0.6594744    -0.8168511    -1.2444469
H           0.0632593    -2.0857686    -2.2502777
O           4.0921402    -0.5648273    -2.4096272
19
245_C7H8N2O2_0-2-8-9 (150,) energy =    -531.5395705
N           1.3553921    -0.5465070    -1.7358180
H           2.0842791    -0.5155130    -2.4454869
C           1.7856008    -0.5193155    -0.4456647
C           5.6824747     1.1612596     0.2624790
H           6.6826835     1.5643910     0.3778677
N           5.4117593     0.5561253    -0.9281411
H           6.1119955     0.5279080    -1.6611791
C           4.1771690     0.0016467    -1.3030307
C           3.1800609     0.0196953    -0.2429280
C           3.4514608     0.6543949     0.9453792
H           2.6605726     0.6718630     1.6898786
C           4.7153434     1.2366374     1.2234485
H           4.9175762     1.7239872     2.1693150
O           1.0720777    -0.7883965     0.5202606
C           0.0452154    -1.0723640    -2.0736987
H          -0.2768804    -0.6505370    -3.0298864
H          -0.6609772    -0.7863160    -1.2922120
H           0.0431164    -2.1685041    -2.1516280
O           4.0451672    -0.4332290    -2.4540924
19
245_C7H8N2O2_0-2-8-9 (165,) energy =    -531.5420379
N           1.4809710    -0.4647373    -1.9928041
H           2.2085182    -0.2557514    -2.6736195
C           1.8548036    -0.4596992    -0.6878303
C           5.7018047     1.1966103     0.3081177
H           6.6869266     1.6101296     0.4948008
N           5.4129713     0.8947167    -0.9881188
H           6.0908526     1.0718573    -1.7213552
C           4.1979023     0.3705632    -1.4585489
C           3.2268713     0.1036095    -0.4075177
C           3.5226155     0.4218416     0.8971302
H           2.7552914     0.2160065     1.6379443
C           4.7699783     0.9754834     1.2818436
H           4.9874068     1.2163493     2.3151816
O           1.1275509    -0.8191585     0.2393442
C           0.2021570    -0.9982148    -2.4191050
H           0.2873599    -2.0349949    -2.7724848
H          -0.2055298    -0.3859063    -3.2299755
H          -0.4796269    -0.9778311    -1.5676134
O           4.0670303     0.1904259    -2.6767155
19
245_C7H8N2O2_0-2-8-9 (180,) energy =    -531.5427732
N           1.6327063    -0.5830622    -1.9186777
H           2.3729452    -0.4098318    -2.5955933
C           1.9080118    -0.2971434    -0.6223474
C           5.8287314     1.1801179     0.3716759
H           6.8314746     1.5485480     0.5590680
N           5.5272941     0.8891756    -0.9239969
H           6.2182584     1.0194439    -1.6548306
C           4.2962971     0.4021982    -1.3930175
C           3.3018461     0.2129904    -0.3470108
C           3.6142388     0.5127291     0.9582974
H           2.8311920     0.3552632     1.6944727
C           4.8872987     1.0018610     1.3450670
H           5.1156021     1.2306137     2.3788229
O           1.1007450    -0.4360586     0.2985687
C           0.3331415    -1.0705295    -2.3358855
H           0.4534855    -1.8014754    -3.1415495
H          -0.3131553    -0.2578656    -2.6946389
H          -0.1536796    -1.5439493    -1.4813822
O           4.1745626     0.1869211    -2.6066740
