26
358_C10H13NO2_0-6-20-21 (-165,) energy =    -594.0681980
C           1.6476835    -2.0192299    -0.6229236
H           2.0249307    -2.0465428    -1.6438066
H           2.1416944    -2.8050114    -0.0422170
C           0.1157062    -2.1516780    -0.6447822
H          -0.2568581    -2.4774315     0.3328141
H          -0.2340454    -2.8720916    -1.3899081
C           1.7911023    -0.6226010     0.0001367
H           1.5011623    -0.7204615     1.0599576
O           0.7862965     0.1458706    -0.6880234
C          -0.3389332    -0.7070654    -0.9502972
H          -0.6213142    -0.5689866    -2.0004130
H          -1.1892759    -0.4032914    -0.3254054
C           5.1732195     2.0668543     0.2019297
H           6.0167693     2.7468547     0.2334634
C           5.2808489     0.9832227    -0.7457621
N           4.1506124     0.0938469    -0.7938356
C           4.2620548    -0.9627762    -1.8044631
H           5.2348104    -0.8303359    -2.2748249
H           4.2123874    -1.9522297    -1.3455312
H           3.4771539    -0.8582727    -2.5577215
C           3.0551921     0.2400281     0.0311487
C           3.0087169     1.2890720     0.9168665
H           2.1338713     1.4003112     1.5462059
C           4.0764594     2.2158236     0.9959080
H           4.0153978     3.0432604     1.6986248
O           6.2488356     0.8000989    -1.4837354
26
358_C10H13NO2_0-6-20-21 (-150,) energy =    -594.0722709
C           1.6776755    -2.0385769    -0.2839339
H           2.2873516    -2.2800433    -1.1509594
H           1.9942814    -2.6833741     0.5428294
C           0.1838411    -2.1903388    -0.6164071
H          -0.3960592    -2.3528097     0.2989097
H          -0.0162126    -3.0306527    -1.2875846
C           1.7436840    -0.5457592     0.0861388
H           1.2947517    -0.4273528     1.0842429
O           0.8914628     0.0780930    -0.8979472
C          -0.1675232    -0.8267249    -1.2477939
H          -0.2193878    -0.8714831    -2.3419265
H          -1.1241570    -0.4356444    -0.8774570
C           5.2735752     1.9420952     0.2531538
H           6.1661551     2.5569686     0.2756748
C           5.2601459     0.8923467    -0.7406799
N           4.0548669     0.1205712    -0.7983857
C           3.9458687    -0.7220944    -1.9947132
H           4.6374411    -0.3134128    -2.7305524
H           4.2478366    -1.7549267    -1.7940966
H           2.9240388    -0.6835493    -2.3702435
C           3.0333806     0.2641397     0.1189102
C           3.0785823     1.3025653     1.0165988
H           2.2580043     1.4300612     1.7127699
C           4.2132915     2.1513513     1.0818342
H           4.2329712     2.9623173     1.8057739
O           6.1737243     0.6642250    -1.5327720
26
358_C10H13NO2_0-6-20-21 (-135,) energy =    -594.0773340
C           1.6967802    -1.9925376    -0.1155604
H           2.4199001    -2.3028827    -0.8696269
H           1.9346912    -2.5183061     0.8146987
C           0.2579577    -2.2456026    -0.5940579
H          -0.4177785    -2.3287287     0.2644827
H           0.1596988    -3.1627545    -1.1821504
C           1.6839675    -0.4645046     0.0763761
H           1.1620065    -0.2412246     1.0186456
O           0.8952791     0.0221984    -1.0262845
C          -0.0605703    -0.9788552    -1.4135975
H           0.0445093    -1.1441417    -2.4928162
H          -1.0750097    -0.6060202    -1.2243866
C           5.3255516     1.8417278     0.3197110
H           6.2532199     2.4013608     0.3597378
C           5.2189197     0.8785778    -0.7542897
N           3.9742714     0.1791636    -0.8248782
C           3.8030409    -0.6039720    -2.0548836
H           4.3819835    -0.1086466    -2.8342724
H           4.2041395    -1.6169805    -1.9443290
H           2.7488942    -0.6277522    -2.3203342
C           2.9858481     0.3161218     0.1282254
C           3.1204390     1.2666415     1.1096467
H           2.3273082     1.3883370     1.8378072
C           4.3088355     2.0370403     1.2047007
H           4.4021881     2.7796092     1.9934280
O           6.0900910     0.6609752    -1.5954409
26
358_C10H13NO2_0-6-20-21 (-120,) energy =    -594.0802389
C           1.6939272    -1.9069433     0.0315206
H           2.4773284    -2.2647919    -0.6413342
H           1.8882567    -2.3202549     1.0256519
C           0.2995194    -2.2550804    -0.5109250
H          -0.4366660    -2.2400038     0.3008189
H           0.2549799    -3.2409887    -0.9829201
C           1.6305261    -0.3682685     0.0534429
H           1.0665299    -0.0617426     0.9464882
O           0.8700745    -0.0102800    -1.1125756
C           0.0312205    -1.1111711    -1.5050862
H           0.2934035    -1.3934881    -2.5333202
H          -1.0145851    -0.7825042    -1.4994341
C           5.3643563     1.7686469     0.3851349
H           6.3207576     2.2748285     0.4516485
C           5.1850237     0.9123505    -0.7667769
N           3.9093638     0.2750926    -0.8597173
C           3.7133162    -0.4821985    -2.1023468
H           4.2517675     0.0412385    -2.8924060
H           4.1452576    -1.4857329    -2.0220850
H           2.6523303    -0.5303014    -2.3290097
C           2.9399462     0.3968268     0.1130865
C           3.1527121     1.2287582     1.1843567
H           2.3784357     1.3315910     1.9353343
C           4.3841247     1.9216116     1.3187399
H           4.5384934     2.5743504     2.1745393
O           6.0273582     0.7200512    -1.6426415
26
358_C10H13NO2_0-6-20-21 (-105,) energy =    -594.0805391
C           1.6895702    -1.8145206     0.1603581
H           2.5193140    -2.2198787    -0.4285999
H           1.8411570    -2.1038080     1.2037780
C           0.3383769    -2.2593513    -0.4172802
H          -0.4498930    -2.1536225     0.3369899
H           0.3354797    -3.2974002    -0.7627734
C           1.5971802    -0.2849264    -0.0026773
H           1.0010702     0.1102214     0.8326916
O           0.8585499    -0.0668917    -1.2124919
C           0.1275417    -1.2564823    -1.5621437
H           0.5200834    -1.6425313    -2.5133487
H          -0.9241447    -0.9889473    -1.7115315
C           5.4127524     1.6857581     0.4021428
H           6.3934605     2.1386992     0.4934940
C           5.1727134     0.9448491    -0.8161588
N           3.8697294     0.3681892    -0.9338592
C           3.6523978    -0.3466100    -2.1989856
H           4.1730818     0.2029708    -2.9830431
H           4.0935940    -1.3487429    -2.1535306
H           2.5882534    -0.3979135    -2.4036284
C           2.9156291     0.4678674     0.0551953
C           3.1949862     1.1715004     1.2014987
H           2.4360901     1.2499547     1.9711339
C           4.4613657     1.7878094     1.3722023
H           4.6654349     2.3432011     2.2844922
O           5.9913635     0.7864592    -1.7207419
26
358_C10H13NO2_0-6-20-21 (-90,) energy =    -594.0793559
C           1.5581625    -1.7174558     0.3572680
H           2.4544567    -2.1879348    -0.0634283
H           1.5942022    -1.8393579     1.4428276
C           0.2879247    -2.2808989    -0.2951889
H          -0.5867125    -2.0787940     0.3339713
H           0.3342028    -3.3590187    -0.4760880
C           1.4812922    -0.2279318    -0.0471489
H           0.8665626     0.2962954     0.6991308
O           0.7782975    -0.1804779    -1.2899015
C           0.2145164    -1.4652974    -1.5912484
H           0.7966931    -1.9408704    -2.3949625
H          -0.8065253    -1.3120483    -1.9550730
C           5.3460364     1.6645661     0.2026296
H           6.3343506     2.1074094     0.2487974
C           4.9993176     1.0417108    -1.0548770
N           3.6956047     0.4402375    -1.0986272
C           3.3671381    -0.2328162    -2.3648967
H           4.2678920    -0.1881249    -2.9738946
H           3.0944675    -1.2758555    -2.1863870
H           2.5409828     0.2713110    -2.8654567
C           2.8190490     0.4972601    -0.0389475
C           3.1942892     1.1040933     1.1349033
H           2.4894894     1.1432373     1.9578200
C           4.4796379     1.6892871     1.2540425
H           4.7659092     2.1643948     2.1893552
O           5.7401032     0.9966337    -2.0360765
26
358_C10H13NO2_0-6-20-21 (-75,) energy =    -594.0765962
C           1.4797683    -1.6095070     0.5563395
H           2.3987111    -2.1387830     0.2775616
H           1.4344605    -1.5683724     1.6472672
C           0.2560667    -2.2643235    -0.0987371
H          -0.6631932    -1.9692403     0.4204431
H           0.3046093    -3.3573231    -0.1125908
C           1.4601374    -0.1965068    -0.0745210
H           0.8271688     0.4495319     0.5521651
O           0.8093582    -0.3214945    -1.3359297
C           0.2960299    -1.6509618    -1.5014685
H           0.9598673    -2.2244544    -2.1671133
H          -0.6851916    -1.5750032    -1.9798126
C           5.3916738     1.5714776     0.1768826
H           6.3904950     1.9894526     0.2269872
C           4.9889442     1.0700428    -1.1157852
N           3.6680384     0.4978248    -1.1683443
C           3.3015739    -0.0764537    -2.4743690
H           4.1813077     0.0316750    -3.1056368
H           3.0474432    -1.1338041    -2.3703094
H           2.4532078     0.4524125    -2.9063168
C           2.8299081     0.4821004    -0.0787192
C           3.2636081     0.9667479     1.1329771
H           2.5871250     0.9488082     1.9805342
C           4.5627320     1.5150078     1.2575633
H           4.8918350     1.8958380     2.2215395
O           5.6955125     1.0959222    -2.1226139
26
358_C10H13NO2_0-6-20-21 (-60,) energy =    -594.0742314
C           1.2602701    -1.4663274     0.6844071
H           2.2068486    -2.0175426     0.6918236
H           1.0003320    -1.2381258     1.7210116
C           0.1791058    -2.2607071    -0.0596976
H          -0.8227624    -1.9142537     0.2187284
H           0.2348282    -3.3376364     0.1257557
C           1.3998323    -0.1823890    -0.1807681
H           0.7488756     0.6032580     0.2291767
O           0.8779962    -0.5100293    -1.4661454
C           0.4823539    -1.8858945    -1.5097233
H           1.2972226    -2.5045698    -1.9187426
H          -0.3771048    -1.9594937    -2.1821682
C           5.4072273     1.4145403     0.2170683
H           6.4147762     1.8045314     0.3037717
C           4.9944955     1.0413141    -1.1135932
N           3.6477202     0.5324390    -1.2244361
C           3.2473110     0.1826145    -2.6000517
H           4.0729982     0.4929380    -3.2369900
H           3.0959516    -0.8948239    -2.6980759
H           2.3278756     0.6951692    -2.8748325
C           2.8242217     0.3957884    -0.1328993
C           3.2702664     0.7603213     1.1172274
H           2.6040191     0.6575341     1.9663722
C           4.5752122     1.2786534     1.2883315
H           4.9097446     1.5659266     2.2824531
O           5.7063991     1.1332484    -2.1127652
26
358_C10H13NO2_0-6-20-21 (-45,) energy =    -594.0749123
C           1.1477317    -1.2787930     0.7206451
H           2.0502869    -1.8531810     0.9537537
H           0.7699300    -0.8521710     1.6538644
C           0.1213767    -2.1597627     0.0012790
H          -0.8772326    -1.7095658     0.0422942
H           0.0603918    -3.1705576     0.4157779
C           1.4795797    -0.1931409    -0.3381698
H           0.8061225     0.6693771    -0.2218117
O           1.1731766    -0.7995770    -1.6015468
C           0.6616589    -2.1259792    -1.4250921
H           1.4671956    -2.8634557    -1.5628728
H          -0.0961341    -2.2938456    -2.1963222
C           5.4870733     1.3832891     0.1543160
H           6.4901894     1.7825951     0.2509319
C           5.0505759     1.1040274    -1.1927182
N           3.6996733     0.6229187    -1.3168207
C           3.2312721     0.5252824    -2.7116194
H           3.9045632     1.1435003    -3.3022922
H           3.2834389    -0.5035626    -3.0739452
H           2.2041924     0.8729492    -2.7913797
C           2.9197722     0.3264496    -0.2218385
C           3.3796984     0.6201985     1.0417670
H           2.7517146     0.4116078     1.8989731
C           4.6757497     1.1602823     1.2259226
H           5.0211998     1.3851540     2.2322969
O           5.7384255     1.2741872    -2.1983952
26
358_C10H13NO2_0-6-20-21 (-30,) energy =    -594.0777758
C           1.0372737    -1.1674175     0.7087601
H           1.8738253    -1.7510238     1.1070078
H           0.5877412    -0.6075639     1.5339711
C           0.0463814    -2.0881851    -0.0106038
H          -0.9167450    -1.5855804    -0.1574985
H          -0.1345395    -3.0241214     0.5264467
C           1.5365375    -0.2509395    -0.4295425
H           0.8647697     0.6155971    -0.5398039
O           1.4163602    -1.0498576    -1.6241692
C           0.7560018    -2.2906516    -1.3473949
H           1.4972280    -3.1014636    -1.2856731
H           0.0794595    -2.5058879    -2.1808754
C           5.5054065     1.3691969     0.1487696
H           6.5003182     1.7875038     0.2507173
C           5.0281705     1.2062103    -1.2055211
N           3.6946999     0.6956183    -1.3260106
C           3.1753244     0.7061060    -2.7036046
H           3.7109811     1.4911914    -3.2348585
H           3.3632222    -0.2485454    -3.1997265
H           2.1041165     0.8943747    -2.7032052
C           2.9592334     0.2708117    -0.2407004
C           3.4480873     0.4654635     1.0292818
H           2.8585945     0.1628674     1.8846237
C           4.7375054     1.0251075     1.2197172
H           5.1109760     1.1675135     2.2311003
O           5.6690025     1.4968518    -2.2147304
26
358_C10H13NO2_0-6-20-21 (-15,) energy =    -594.0798802
C           1.0067480    -1.0712277     0.7035938
H           1.7739774    -1.6700703     1.2057843
H           0.5425853    -0.4109425     1.4418497
C           0.0087816    -1.9903742    -0.0108267
H          -0.9034214    -1.4405897    -0.2705389
H          -0.2791182    -2.8596299     0.5877846
C           1.6260722    -0.3059796    -0.4755771
H           0.9534916     0.5226717    -0.7586908
O           1.6543163    -1.2577938    -1.5569769
C           0.7915772    -2.3686922    -1.2721701
H           1.4063793    -3.2651183    -1.1096791
H           0.1506417    -2.5468405    -2.1430263
C           5.5273058     1.4396090     0.1287804
H           6.5071228     1.8928433     0.2279601
C           5.0085879     1.3532262    -1.2184457
N           3.7020840     0.7819905    -1.3288798
C           3.1548595     0.7818146    -2.6938834
H           3.6277521     1.6051862    -3.2263853
H           3.3885037    -0.1555908    -3.2035495
H           2.0735248     0.9057338    -2.6698025
C           3.0145152     0.2699620    -0.2491454
C           3.5442809     0.3805875     1.0123835
H           2.9943565     0.0054954     1.8646607
C           4.8188382     0.9782644     1.1964437
H           5.2276462     1.0580797     2.2009873
O           5.5996024     1.7426838    -2.2247575
26
358_C10H13NO2_0-6-20-21 (0,) energy =    -594.0809520
C           1.1173072    -0.8902556     0.7610711
H           1.8536717    -1.4395973     1.3564844
H           0.6819105    -0.1016567     1.3814478
C           0.0789015    -1.8635216     0.1856820
H          -0.8196318    -1.3206951    -0.1291304
H          -0.2293533    -2.6320218     0.9004403
C           1.7670824    -0.3561985    -0.5192731
H           1.0840468     0.3793740    -0.9793022
O           1.8536335    -1.5128550    -1.3743411
C           0.8172144    -2.4485270    -1.0316200
H           1.2951390    -3.4088142    -0.8017495
H           0.1559459    -2.5938592    -1.8946798
C           5.5954112     1.6111417    -0.2449343
H           6.5468002     2.1307910    -0.2310086
C           4.9290213     1.5527750    -1.5279902
N           3.6912076     0.8415906    -1.5326228
C           3.0187389     0.7972794    -2.8395908
H           3.7943040     0.8204600    -3.6039139
H           2.4246924    -0.1093028    -2.9208785
H           2.3897037     1.6852617    -2.9748382
C           3.1344075     0.2913783    -0.3967789
C           3.7834440     0.4052639     0.8058413
H           3.3416377    -0.0069652     1.7023742
C           5.0367837     1.0704815     0.8732290
H           5.5464258     1.1455994     1.8308994
O           5.3506228     2.0645877    -2.5643311
26
358_C10H13NO2_0-6-20-21 (15,) energy =    -594.0807084
C           0.9963226    -0.8061140     0.7212095
H           1.6585543    -1.2849714     1.4494711
H           0.5005443     0.0403655     1.2046148
C           0.0242100    -1.8448141     0.1411785
H          -0.8365754    -1.3461419    -0.3188397
H          -0.3567847    -2.5427609     0.8924095
C           1.7687718    -0.3994163    -0.5367819
H           1.1246536     0.2867326    -1.1118650
O           1.9309258    -1.6181782    -1.2831496
C           0.8854031    -2.5401701    -0.9289250
H           1.3558746    -3.4547023    -0.5460926
H           0.3120139    -2.8013674    -1.8265840
C           5.5945912     1.5531746    -0.1818204
H           6.5495726     2.0655044    -0.1515807
C           4.8977908     1.5966945    -1.4495428
N           3.6560080     0.8925342    -1.4742374
C           2.9747323     0.8715465    -2.7767023
H           3.7305899     1.0811770    -3.5318423
H           2.5229065    -0.1055461    -2.9423687
H           2.2119704     1.6572056    -2.8310719
C           3.1188737     0.2707197    -0.3659871
C           3.8105891     0.2626856     0.8167849
H           3.3918946    -0.2220157     1.6879459
C           5.0696557     0.9151443     0.9011317
H           5.6114019     0.9030118     1.8439181
O           5.3051096     2.1751763    -2.4561920
26
358_C10H13NO2_0-6-20-21 (30,) energy =    -594.0791779
C           0.9381359    -0.6663248     0.6472205
H           1.5402709    -1.0247830     1.4879183
H           0.3870131     0.2201807     0.9733688
C           0.0406446    -1.7986806     0.1246100
H          -0.7832564    -1.3877348    -0.4703388
H          -0.3941381    -2.4083638     0.9222608
C           1.8029828    -0.3917969    -0.5886955
H           1.1971593     0.2276014    -1.2661919
O           2.0191139    -1.6709538    -1.2067421
C           1.0076494    -2.5942153    -0.7679204
H           1.4971493    -3.4059371    -0.2131448
H           0.5154217    -3.0296325    -1.6453975
C           5.6098278     1.5835802    -0.1470610
H           6.5603569     2.1020526    -0.0921925
C           4.8759574     1.7467087    -1.3831371
N           3.6431249     1.0269113    -1.4456520
C           2.9589178     1.0687006    -2.7456524
H           3.6931587     1.4102755    -3.4734733
H           2.5946392     0.0740927    -3.0062272
H           2.1282510     1.7833654    -2.7359634
C           3.1376763     0.3021937    -0.3854466
C           3.8738854     0.1686480     0.7624167
H           3.4891517    -0.4151574     1.5877670
C           5.1296221     0.8215170     0.8753058
H           5.7050279     0.7115150     1.7914207
O           5.2499230     2.4259025    -2.3386783
26
358_C10H13NO2_0-6-20-21 (45,) energy =    -594.0778175
C           0.8808745    -0.5341783     0.5243086
H           1.4293221    -0.7011517     1.4563435
H           0.3040483     0.3891697     0.6329331
C           0.0246499    -1.7593339     0.1734243
H          -0.7636591    -1.4827318    -0.5363222
H          -0.4552306    -2.2140894     1.0452790
C           1.8348154    -0.4838673    -0.6797675
H           1.2937181    -0.0080510    -1.5059169
O           2.0896050    -1.8555346    -1.0232149
C           1.0492460    -2.6927475    -0.4927302
H           1.4974528    -3.3868761     0.2310850
H           0.6155440    -3.2850014    -1.3073187
C           5.6058199     1.5374921    -0.1218853
H           6.5458681     2.0685944    -0.0249507
C           4.8587527     1.8026616    -1.3306466
N           3.6320093     1.0722233    -1.4508799
C           2.9226392     1.2525261    -2.7247781
H           3.5978298     1.8056792    -3.3753823
H           2.6825218     0.2830701    -3.1670113
H           2.0061773     1.8372183    -2.5927462
C           3.1626418     0.2260077    -0.4674182
C           3.9110305     0.0043034     0.6593583
H           3.5523378    -0.6849276     1.4129805
C           5.1527605     0.6683919     0.8255530
H           5.7403576     0.4823877     1.7214074
O           5.2144839     2.5761351    -2.2194460
26
358_C10H13NO2_0-6-20-21 (60,) energy =    -594.0786043
C           0.8645634    -0.3906604     0.3256482
H           1.3611608    -0.3716824     1.3010644
H           0.2984837     0.5397359     0.2155178
C           0.0093978    -1.6536579     0.1647136
H          -0.7229272    -1.5182538    -0.6396677
H          -0.5383516    -1.9214013     1.0733023
C           1.9087751    -0.5829762    -0.7903085
H           1.4635951    -0.2949000    -1.7487295
O           2.1654819    -1.9963023    -0.8049449
C           1.0585688    -2.7071865    -0.2279846
H           1.4238897    -3.2641878     0.6450989
H           0.6768742    -3.4319230    -0.9572677
C           5.6106072     1.5249259    -0.1193228
H           6.5298490     2.0825250     0.0190655
C           4.8406172     1.8692050    -1.2922013
N           3.6288597     1.1183042    -1.4584880
C           2.8434290     1.4575327    -2.6519315
H           3.3974737     2.2402135    -3.1674791
H           2.7375003     0.5898489    -3.3093025
H           1.8531420     1.8343188    -2.3787854
C           3.2281554     0.1415371    -0.5723010
C           3.9897641    -0.1432387     0.5314434
H           3.6715618    -0.9333541     1.2000487
C           5.2016337     0.5572202     0.7505820
H           5.8049946     0.3183726     1.6231632
O           5.1577911     2.7312276    -2.1116588
26
358_C10H13NO2_0-6-20-21 (75,) energy =    -594.0805615
C           0.8505078    -0.3337657     0.1117337
H           1.2694674    -0.1675522     1.1099020
H           0.3144154     0.5721695    -0.1886282
C          -0.0143629    -1.5994324     0.0785016
H          -0.6676783    -1.5921736    -0.8016995
H          -0.6467548    -1.7121963     0.9642373
C           1.9871615    -0.7098310    -0.8612899
H           1.6493855    -0.5715594    -1.8958369
O           2.2071438    -2.1072909    -0.6322869
C           1.0440694    -2.7073083    -0.0392739
H           1.3246045    -3.1081468     0.9439035
H           0.7149242    -3.5440848    -0.6665498
C           5.6074855     1.5006863    -0.1102743
H           6.5012123     2.0922497     0.0522134
C           4.7898108     1.8985363    -1.2328414
N           3.6069390     1.1096378    -1.4223646
C           2.7482343     1.5245693    -2.5376089
H           3.1813130     2.4427344    -2.9314524
H           2.7338915     0.7665774    -3.3273594
H           1.7271237     1.7147721    -2.1954970
C           3.2905634     0.0333872    -0.6220891
C           4.0939232    -0.3035355     0.4358132
H           3.8326586    -1.1669332     1.0335919
C           5.2718235     0.4444247     0.6853706
H           5.9105771     0.1681773     1.5210750
O           5.0410700     2.8352632    -1.9910254
26
358_C10H13NO2_0-6-20-21 (90,) energy =    -594.0820680
C           0.8158690    -0.2662628    -0.0903035
H           1.1603511     0.0590734     0.8975838
H           0.2893166     0.5694828    -0.5599084
C          -0.0328181    -1.5387276     0.0198018
H          -0.6144858    -1.6917469    -0.8967795
H          -0.7288100    -1.5211585     0.8639367
C           2.0244462    -0.7617734    -0.9189903
H           1.7824415    -0.7178375    -1.9898489
O           2.1928755    -2.1358942    -0.5554138
C           1.0455379    -2.6172889     0.1608188
H           1.3182228    -2.7753924     1.2141737
H           0.7526053    -3.5828340    -0.2653188
C           5.6159245     1.4782325    -0.1176268
H           6.5002361     2.0801427     0.0579627
C           4.7361746     1.9490207    -1.1624800
N           3.5681792     1.1435259    -1.3698510
C           2.6657528     1.6062953    -2.4295280
H           3.0422290     2.5759613    -2.7516514
H           2.6741199     0.9179191    -3.2813142
H           1.6438863     1.7111522    -2.0570345
C           3.3150232    -0.0056337    -0.6517872
C           4.1824522    -0.4201430     0.3238418
H           3.9707765    -1.3405091     0.8506421
C           5.3496113     0.3413446     0.5876744
H           6.0372517     0.0084906     1.3617682
O           4.9278476     2.9542836    -1.8467534
26
358_C10H13NO2_0-6-20-21 (105,) energy =    -594.0822278
C           1.4970151    -1.3008673    -1.2723120
H           1.5108938    -0.4717054    -1.9884066
H           2.0613734    -2.1304886    -1.7046812
C           0.0527117    -1.6790343    -0.9139765
H           0.0095146    -2.6940465    -0.5026274
H          -0.6278388    -1.6262576    -1.7692535
C           2.0769907    -0.8334263     0.0919462
H           2.5846734    -1.6705667     0.5904934
O           0.9516566    -0.4870665     0.9056319
C          -0.2670960    -0.6541500     0.1721314
H          -0.5811951     0.3051520    -0.2673963
H          -1.0364672    -0.9790125     0.8789587
C           4.7953442     2.4944749    -0.2895876
H           5.5072738     3.3023250    -0.4148063
C           5.2538656     1.1869846    -0.6978748
N           4.2992101     0.1324223    -0.5162215
C           4.7664971    -1.2030730    -0.9019599
H           5.8400567    -1.1207019    -1.0637349
H           4.5631044    -1.9302018    -0.1120182
H           4.2948090    -1.5347756    -1.8321323
C           3.0335439     0.3467938    -0.0111575
C           2.6431723     1.6038092     0.3675267
H           1.6571504     1.7352813     0.7903118
C           3.5457804     2.6885917     0.2212273
H           3.2308218     3.6849950     0.5227680
O           6.3654824     0.9431309    -1.1673875
26
358_C10H13NO2_0-6-20-21 (120,) energy =    -594.0817561
C           1.6085695    -1.4866043    -1.1185245
H           1.8017289    -0.8062152    -1.9548265
H           2.1210184    -2.4279311    -1.3286623
C           0.0946849    -1.6687605    -0.9119731
H          -0.1184519    -2.6297328    -0.4309684
H          -0.4707071    -1.6197027    -1.8475960
C           2.0793132    -0.8445098     0.2238553
H           2.5862149    -1.5947944     0.8469481
O           0.8963997    -0.4730572     0.9329064
C          -0.2253376    -0.5243522     0.0465167
H          -0.3360586     0.4288914    -0.4936973
H          -1.1168490    -0.6846547     0.6589720
C           4.7372533     2.5266827    -0.2598004
H           5.4325279     3.3448977    -0.4092629
C           5.1541846     1.2460209    -0.7815001
N           4.2293518     0.1757483    -0.5562225
C           4.6943355    -1.1393882    -1.0093096
H           5.7803985    -1.0883745    -1.0711346
H           4.3927430    -1.9166029    -0.3050595
H           4.3064508    -1.3787245    -2.0046923
C           3.0070597     0.3558110     0.0573380
C           2.6596886     1.5855670     0.5508659
H           1.7113975     1.6903220     1.0587447
C           3.5436426     2.6827287     0.3812179
H           3.2585763     3.6579188     0.7694017
O           6.2128213     1.0295174    -1.3714543
26
358_C10H13NO2_0-6-20-21 (135,) energy =    -594.0791438
C           1.6519223    -1.5842533    -1.0056340
H           1.9220938    -1.0305328    -1.9102675
H           2.1418840    -2.5588956    -1.0506932
C           0.1197177    -1.6982055    -0.8906641
H          -0.1620333    -2.5926193    -0.3243662
H          -0.3773565    -1.7375629    -1.8647802
C           2.0483017    -0.7798746     0.2717499
H           2.5240591    -1.4510770     1.0020012
O           0.8300671    -0.3438976     0.8739834
C          -0.2240462    -0.4463343    -0.0869394
H          -0.2508364     0.4471051    -0.7304910
H          -1.1642103    -0.5074960     0.4675644
C           4.7890186     2.5305752    -0.2370255
H           5.5029156     3.3330316    -0.3841641
C           5.1214525     1.2723305    -0.8622050
N           4.1822675     0.2156490    -0.6297081
C           4.6253646    -1.0974451    -1.1115077
H           5.7130744    -1.0670786    -1.1621753
H           4.3023780    -1.8822506    -0.4264340
H           4.2481274    -1.3097967    -2.1165569
C           2.9963600     0.4019562     0.0520258
C           2.7437472     1.6031891     0.6626972
H           1.8254618     1.7130836     1.2221815
C           3.6533750     2.6803009     0.5028019
H           3.4346696     3.6339138     0.9779216
O           6.1316677     1.0558147    -1.5317911
26
358_C10H13NO2_0-6-20-21 (150,) energy =    -594.0741607
C           1.6837056    -1.6493138    -0.8820070
H           1.9793342    -1.2076364    -1.8379696
H           2.1915472    -2.6102548    -0.7820857
C           0.1497350    -1.7817729    -0.8260204
H          -0.1476998    -2.5792423    -0.1360425
H          -0.2948751    -1.9891371    -1.8042422
C           1.9959154    -0.6840585     0.3000364
H           2.3896782    -1.2712095     1.1435688
O           0.7420653    -0.1579193     0.7410378
C          -0.2509138    -0.4254265    -0.2517606
H          -0.2451874     0.3557557    -1.0284817
H          -1.2228121    -0.4140390     0.2488710
C           4.8482154     2.5500305    -0.1680375
H           5.5805977     3.3384520    -0.2993379
C           5.0992165     1.3309555    -0.8978997
N           4.1452970     0.2822763    -0.6794922
C           4.5707805    -1.0147598    -1.2197641
H           5.6588967    -0.9952496    -1.2705147
H           4.2409253    -1.8226245    -0.5677852
H           4.1954764    -1.1801485    -2.2341193
C           2.9940401     0.4602757     0.0646500
C           2.8302984     1.6187721     0.7829113
H           1.9375689     1.7310857     1.3825427
C           3.7666662     2.6753824     0.6524805
H           3.6100003     3.5944137     1.2124988
O           6.0637813     1.1316873    -1.6369055
26
358_C10H13NO2_0-6-20-21 (165,) energy =    -594.0694175
C           1.8087850    -1.6029351    -0.9535858
H           1.9873685    -1.3141860    -1.9929812
H           2.4497829    -2.4519318    -0.7108469
C           0.3119599    -1.9257821    -0.7410751
H           0.1826395    -2.7317450    -0.0114897
H          -0.1651945    -2.2477401    -1.6708720
C           2.0026055    -0.3918797    -0.0217575
H           2.0318579    -0.7854991     1.0128653
O           0.7925853     0.3493629    -0.1948562
C          -0.2780072    -0.5970473    -0.2020450
H          -1.0698388    -0.1798987    -0.8301995
H          -0.6751852    -0.7252297     0.8158615
C           5.1893899     2.5404040    -0.1009039
H           5.9971484     3.2627755    -0.1269831
C           5.4262604     1.3120921    -0.8184737
N           4.3569861     0.3494156    -0.7602601
C           4.6850390    -0.9394273    -1.3806637
H           5.7491734    -0.9047851    -1.6077029
H           4.4788940    -1.7599347    -0.6919777
H           4.1349606    -1.0899995    -2.3124106
C           3.1600311     0.6081601    -0.1237242
C           2.9992119     1.7829626     0.5699844
H           2.0551478     1.9656690     1.0654804
C           4.0247614     2.7592101     0.5720998
H           3.8727243     3.6887801     1.1154892
O           6.4592599     1.0517142    -1.4356581
26
358_C10H13NO2_0-6-20-21 (180,) energy =    -594.0678085
C           1.6582448    -1.9403344    -0.8638309
H           1.9366688    -1.7867139    -1.9082395
H           2.2232459    -2.7882518    -0.4667278
C           0.1363710    -2.1407225    -0.7539402
H          -0.1135664    -2.6783276     0.1673527
H          -0.2704977    -2.7145997    -1.5914806
C           1.8338975    -0.6489417    -0.0514854
H           1.6835799    -0.9186005     1.0094595
O           0.7290355     0.1623416    -0.4818590
C          -0.4014902    -0.6922250    -0.7044414
H          -0.8657834    -0.3794342    -1.6460095
H          -1.1367631    -0.5584064     0.1006792
C           5.1514386     2.1303698     0.0783542
H           5.9805437     2.8284049     0.0955915
C           5.3130182     0.9906793    -0.7907737
N           4.2144474     0.0594580    -0.7969255
C           4.4447628    -1.1205265    -1.6379112
H           5.5022583    -1.1093564    -1.8960071
H           4.2023430    -2.0342381    -1.0963625
H           3.8623527    -1.0688947    -2.5622354
C           3.0677988     0.2621746    -0.0582109
C           2.9720066     1.3609161     0.7610641
H           2.0602060     1.5076287     1.3265408
C           4.0238419     2.3058351     0.8234806
H           3.9242387     3.1733387     1.4714359
O           6.3046259     0.7805477    -1.4894531
