19
344_C9H10_0-3-14-12 (-165,) energy =    -348.9479935
C           1.6079718    -1.6132765    -1.1427618
H           2.2823950    -1.8265149    -1.9668135
H           0.5575748    -1.6352353    -1.4197351
C           2.0348709    -0.6169047    -0.0930551
H           1.2236174    -0.0471062     0.3583852
C           2.0034809    -2.1036695     0.2250459
H           1.2310353    -2.4693696     0.8963479
H           2.9596101    -2.6107460     0.3210133
C           5.7651857     1.5591141    -0.1372071
H           6.7029937     2.1082406    -0.1354258
C           4.9851796     1.4926292     1.0202869
H           5.3143829     1.9906293     1.9288382
C           3.7841822     0.7864364     1.0147072
H           3.1840959     0.7339166     1.9206386
C           3.3315965     0.1324122    -0.1430977
C           4.1187452     0.2163305    -1.2981648
H           3.7815525    -0.2592445    -2.2145841
C           5.3264437     0.9186934    -1.2954464
H           5.9196519     0.9703233    -2.2050139
19
344_C9H10_0-3-14-12 (-150,) energy =    -348.9480261
C           1.7076348    -1.7210884    -1.1206971
H           2.4838808    -2.0302628    -1.8150864
H           0.7010381    -1.7896724    -1.5238925
C           2.0147083    -0.5979656    -0.1613286
H           1.1641974     0.0298664     0.1046011
C           1.9224481    -2.0262013     0.3407340
H           1.0652925    -2.3038908     0.9482654
H           2.8496409    -2.5185821     0.6209527
C           5.7568572     1.5567815    -0.1465632
H           6.6960232     2.1036148    -0.1354696
C           5.0317502     1.3794497     1.0347751
H           5.4058214     1.7880811     1.9701640
C           3.8294402     0.6747196     1.0181666
H           3.2720303     0.5329788     1.9414132
C           3.3244305     0.1336477    -0.1747976
C           4.0574917     0.3256235    -1.3521560
H           3.6754643    -0.0717418    -2.2885662
C           5.2653105     1.0275662    -1.3395785
H           5.8187886     1.1636896    -2.2653063
19
344_C9H10_0-3-14-12 (-135,) energy =    -348.9480681
C           1.8017606    -1.8731135     0.4872282
H           2.0333223    -1.5144415     1.4865697
H           1.5492887    -2.9288889     0.4400446
C           2.5555552    -1.2634091    -0.6703894
H           2.7438148    -1.9380635    -1.5063007
C           1.0988264    -0.9195339    -0.4482230
H           0.3625190    -1.3176144    -1.1411803
H           0.8688330     0.0740024    -0.0728392
C           5.6925783     1.6487310    -0.1109595
H           6.4846805     2.3807358     0.0231662
C           4.7054713     1.8513954    -1.0782000
H           4.7262792     2.7429265    -1.6999714
C           3.6872116     0.9130803    -1.2457608
H           2.9167783     1.0761379    -1.9957261
C           3.6350902    -0.2432539    -0.4537514
C           4.6329423    -0.4353576     0.5106969
H           4.6070254    -1.3283315     1.1301872
C           5.6532157     0.5019447     0.6833336
H           6.4166707     0.3359198     1.4392519
19
344_C9H10_0-3-14-12 (-120,) energy =    -348.9480696
C           1.7140722    -1.7625200     0.5318693
H           1.8520510    -1.2683518     1.4898417
H           1.4607513    -2.8167137     0.6045123
C           2.5832394    -1.3099318    -0.6205078
H           2.8530733    -2.0958053    -1.3269200
C           1.1164816    -0.9510650    -0.5920459
H           0.4496574    -1.4453992    -1.2931935
H           0.8532284     0.0815539    -0.3789421
C           5.6921286     1.6416677    -0.1114873
H           6.4795012     2.3804527     0.0130772
C           4.6314447     1.8855004    -0.9852290
H           4.5899711     2.8161210    -1.5456438
C           3.6198359     0.9361523    -1.1413478
H           2.7953404     1.1290818    -1.8231745
C           3.6479371    -0.2695080    -0.4281320
C           4.7195257    -0.5017881     0.4460999
H           4.7510617    -1.4317660     1.0088563
C           5.7334057     0.4431472     0.6043921
H           6.5540920     0.2457582     1.2894862
19
344_C9H10_0-3-14-12 (-105,) energy =    -348.9480342
C           1.6265778    -1.6437326     0.5602373
H           1.6737017    -1.0182582     1.4475176
H           1.3685453    -2.6810948     0.7557191
C           2.6073950    -1.3457627    -0.5570903
H           2.9414934    -2.2236427    -1.1104073
C           1.1464372    -1.0045820    -0.7188224
H           0.5534138    -1.5993487    -1.4080667
H           0.8573149     0.0418289    -0.6753252
C           5.6957591     1.6381438    -0.1070582
H           6.4788595     2.3829996     0.0075682
C           4.5703179     1.9147271    -0.8830054
H           4.4735080     2.8768261    -1.3798356
C           3.5650424     0.9557936    -1.0291746
H           2.6969836     1.1747997    -1.6450958
C           3.6626810    -0.2910119    -0.3994812
C           4.8018200    -0.5566867     0.3766132
H           4.8908679    -1.5198839     0.8740493
C           5.8092736     0.3955017     0.5219725
H           6.6821784     0.1702005     1.1295342
19
344_C9H10_0-3-14-12 (-90,) energy =    -348.9479914
C           1.5409609    -1.5159941     0.5622144
H           1.5044485    -0.7692814     1.3506435
H           1.2710824    -2.5194389     0.8804956
C           2.6268397    -1.3638374    -0.4903578
H           3.0106635    -2.3084287    -0.8742368
C           1.1866184    -1.0738611    -0.8337955
H           0.6711243    -1.7726265    -1.4868282
H           0.8808184    -0.0404749    -0.9685030
C           5.7056439     1.6395629    -0.1007427
H           6.4870977     2.3875649     0.0035025
C           4.5232045     1.9462630    -0.7730390
H           4.3802138     2.9353959    -1.2008682
C           3.5203191     0.9832347    -0.9101352
H           2.6135768     1.2307935    -1.4545074
C           3.6752427    -0.2994538    -0.3705059
C           4.8738751    -0.5954261     0.2992123
H           5.0117715    -1.5883289     0.7218598
C           5.8790224     0.3600217     0.4335811
H           6.7978377     0.1074246     0.9568863
19
344_C9H10_0-3-14-12 (-75,) energy =    -348.9481741
C           1.4527214    -1.3964929     0.5475160
H           1.3511409    -0.5467894     1.2170802
H           1.1508235    -2.3475481     0.9781310
C           2.6358749    -1.3826715    -0.4108137
H           3.0488566    -2.3677963    -0.6215178
C           1.2335480    -1.1582926    -0.9221314
H           0.7863916    -1.9509692    -1.5157472
H           0.9412402    -0.1610052    -1.2371517
C           5.7135429     1.6309690    -0.1049110
H           6.4954831     2.3807478    -0.0195243
C           4.4783967     1.9615078    -0.6620865
H           4.2941752     2.9719172    -1.0184812
C           3.4751267     0.9970951    -0.7776339
H           2.5275563     1.2717742    -1.2319264
C           3.6804600    -0.3142466    -0.3285756
C           4.9318411    -0.6335704     0.2234875
H           5.1138118    -1.6483715     0.5709236
C           5.9374223     0.3245602     0.3356552
H           6.8972122     0.0508656     0.7666124
19
344_C9H10_0-3-14-12 (-60,) energy =    -348.9487393
C           1.3600002    -1.2848625     0.4826964
H           1.2050141    -0.3612180     1.0339419
H           1.0005641    -2.1767282     0.9890929
C           2.6389354    -1.3890408    -0.3375366
H           3.0596747    -2.3914283    -0.3871738
C           1.2993917    -1.2253764    -1.0182859
H           0.9068710    -2.0838548    -1.5565929
H           1.0668125    -0.2734876    -1.4870037
C           5.7140820     1.6323984    -0.1117335
H           6.4952666     2.3851030    -0.0487060
C           4.4344824     1.9793964    -0.5477264
H           4.2147560     3.0061169    -0.8295819
C           3.4319635     1.0129822    -0.6348741
H           2.4464306     1.3065918    -0.9860545
C           3.6815042    -0.3205996    -0.2783371
C           4.9749366    -0.6549702     0.1522356
H           5.1923622    -1.6854089     0.4250675
C           5.9804763     0.3072899     0.2366617
H           6.9734858     0.0200957     0.5731774
19
344_C9H10_0-3-14-12 (-45,) energy =    -348.9493873
C           1.2810359    -1.1848448     0.4161182
H           1.0896207    -0.2069024     0.8501373
H           0.8480230    -2.0127314     0.9711834
C           2.6376202    -1.3935723    -0.2388932
H           3.0450457    -2.3974034    -0.1396618
C           1.3806196    -1.2890381    -1.0787057
H           1.0239688    -2.1954443    -1.5606184
H           1.2394485    -0.3897194    -1.6719974
C           5.7166697     1.6289675    -0.1398506
H           6.4983815     2.3832166    -0.1119399
C           4.4024770     1.9857959    -0.4490810
H           4.1564462     3.0225227    -0.6647417
C           3.3992079     1.0183940    -0.4882517
H           2.3838747     1.3208434    -0.7328862
C           3.6831417    -0.3289491    -0.2140593
C           5.0082206    -0.6721162     0.0924988
H           5.2516024    -1.7109942     0.3044007
C           6.0147192     0.2931800     0.1306350
H           7.0331833    -0.0012725     0.3710066
19
344_C9H10_0-3-14-12 (-30,) energy =    -348.9494874
C           1.2102194    -1.1232443     0.3429971
H           0.9679102    -0.1120062     0.6586777
H           0.7183489    -1.8975309     0.9257472
C           2.6268639    -1.3916811    -0.1288682
H           3.0166929    -2.3787034     0.1099962
C           1.4682894    -1.3762410    -1.1133506
H           1.1528901    -2.3236676    -1.5422869
H           1.4139535    -0.5355587    -1.8000445
C           5.7154179     1.6219054    -0.1724309
H           6.4990055     2.3746171    -0.1826846
C           4.3809295     1.9920052    -0.3524701
H           4.1206201     3.0366980    -0.5032748
C           3.3737334     1.0282071    -0.3380238
H           2.3421571     1.3416022    -0.4794796
C           3.6750798    -0.3297459    -0.1465424
C           5.0197676    -0.6851782     0.0346861
H           5.2753135    -1.7314018     0.1878900
C           6.0302137     0.2767725     0.0219592
H           7.0640856    -0.0273035     0.1649285
19
344_C9H10_0-3-14-12 (-15,) energy =    -348.9489037
C           1.1444110    -1.0679922     0.2524620
H           0.8461984    -0.0377571     0.4247216
H           0.6019149    -1.7863282     0.8613400
C           2.6025234    -1.3601769    -0.0280558
H           2.9668632    -2.3117606     0.3531623
C           1.5580265    -1.4732287    -1.1321668
H           1.2942482    -2.4652567    -1.4891837
H           1.5774255    -0.7084411    -1.9040042
C           5.7220259     1.6190297    -0.2026213
H           6.5150208     2.3605457    -0.2481565
C           4.3842029     2.0143770    -0.2499377
H           4.1296005     3.0682502    -0.3301175
C           3.3647302     1.0643656    -0.1862508
H           2.3314804     1.3996645    -0.2177425
C           3.6573928    -0.3040750    -0.0838165
C           5.0071750    -0.6849633    -0.0314945
H           5.2563501    -1.7402443     0.0567727
C           6.0289969     0.2621297    -0.0910545
H           7.0658974    -0.0615760    -0.0482640
19
344_C9H10_0-3-14-12 (0,) energy =    -348.9482588
C           1.0954427    -1.0349482     0.1433190
H           0.7672072     0.0001880     0.1360027
H           0.4961571    -1.6765333     0.7836142
C           2.5735817    -1.3334569     0.0533176
H           2.8960111    -2.2269786     0.5847736
C           1.6525052    -1.6076481    -1.1295498
H           1.4346744    -2.6419061    -1.3825825
H           1.7419845    -0.9444237    -1.9855990
C           5.7168415     1.6146730    -0.2238952
H           6.5171322     2.3461388    -0.2971554
C           4.3878547     2.0297941    -0.1388188
H           4.1471442     3.0899523    -0.1408488
C           3.3594623     1.0908135    -0.0382967
H           2.3337169     1.4384281     0.0442314
C           3.6354292    -0.2832943    -0.0327626
C           4.9787606    -0.6853269    -0.1116406
H           5.2147357    -1.7473162    -0.1002334
C           6.0084072     0.2490177    -0.2067262
H           7.0396795    -0.0897398    -0.2661273
19
344_C9H10_0-3-14-12 (15,) energy =    -348.9479950
C           1.0696643    -0.9789241     0.0284196
H           0.7648457     0.0455598    -0.1637843
H           0.3960558    -1.5199243     0.6872533
C           2.5427503    -1.2928163     0.1207127
H           2.7984461    -2.1061555     0.7986981
C           1.7379938    -1.7271046    -1.0945870
H           1.5282630    -2.7860093    -1.2202326
H           1.9123467    -1.1901254    -2.0229219
C           5.7110731     1.6202437    -0.2345784
H           6.5165802     2.3439099    -0.3266713
C           4.4013505     2.0482441    -0.0208933
H           4.1809646     3.1097439     0.0598069
C           3.3666809     1.1175704     0.1017807
H           2.3555520     1.4671757     0.2891296
C           3.6184047    -0.2564179     0.0030954
C           4.9435430    -0.6727104    -0.2063847
H           5.1586271    -1.7364966    -0.2817160
C           5.9792323     0.2517785    -0.3236983
H           6.9966779    -0.0951054    -0.4859765
19
344_C9H10_0-3-14-12 (30,) energy =    -348.9480198
C           1.0662853    -0.9318976    -0.0981149
H           0.8178328     0.0634216    -0.4556902
H           0.3147460    -1.3679103     0.5541903
C           2.5156071    -1.2511007     0.1739516
H           2.6887121    -1.9634791     0.9806655
C           1.8197428    -1.8371402    -1.0400170
H           1.5918444    -2.8996851    -1.0395815
H           2.0897691    -1.4365511    -2.0133007
C           5.7067674     1.6289047    -0.2354695
H           6.5161245     2.3470317    -0.3375079
C           4.4231550     2.0587515     0.0997658
H           4.2277466     3.1154077     0.2644666
C           3.3841576     1.1340996     0.2315466
H           2.3904113     1.4767141     0.5066908
C           3.6066492    -0.2325730     0.0242688
C           4.9043935    -0.6514491    -0.3099088
H           5.0927996    -1.7098484    -0.4757888
C           5.9448433     0.2668466    -0.4380445
H           6.9417777    -0.0790197    -0.6994952
19
344_C9H10_0-3-14-12 (45,) energy =    -348.9480666
C           1.0692520    -0.9091854    -0.2346032
H           0.8875417     0.0356595    -0.7397201
H           0.2445214    -1.2476161     0.3865982
C           2.4782129    -1.2046225     0.2204154
H           2.5559962    -1.7956141     1.1336185
C           1.8933818    -1.9415828    -0.9649691
H           1.6376714    -2.9909092    -0.8451449
H           2.2661507    -1.6813721    -1.9519875
C           5.7006307     1.6326140    -0.2321365
H           6.5158300     2.3431300    -0.3411345
C           4.4509335     2.0602619     0.2179702
H           4.2888352     3.1069190     0.4630597
C           3.4046023     1.1458734     0.3550082
H           2.4334414     1.4825815     0.7087910
C           3.5861708    -0.2076114     0.0428919
C           4.8474953    -0.6240020    -0.4078690
H           5.0008540    -1.6712550    -0.6577447
C           5.8962240     0.2852071    -0.5443546
H           6.8655335    -0.0568251    -0.8983320
19
344_C9H10_0-3-14-12 (60,) energy =    -348.9480706
C           1.0869372    -0.9246678    -0.3797766
H           0.9719578    -0.0507441    -1.0154309
H           0.2013012    -1.1778047     0.1967195
C           2.4434734    -1.1618393     0.2449426
H           2.4193743    -1.6234120     1.2328243
C           1.9655349    -2.0436876    -0.8845717
H           1.6849991    -3.0684836    -0.6571193
H           2.4320114    -1.9144072    -1.8575780
C           5.6997005     1.6318405    -0.2318217
H           6.5210065     2.3346855    -0.3447092
C           4.4946416     2.0451785     0.3402318
H           4.3745657     3.0726351     0.6745291
C           3.4403260     1.1423267     0.4803213
H           2.5013008     1.4682549     0.9213333
C           3.5687569    -0.1870686     0.0534889
C           4.7836482    -0.5887832    -0.5176726
H           4.8960790    -1.6166968    -0.8535001
C           5.8410911     0.3111266    -0.6609362
H           6.7747411    -0.0193082    -1.1092122
19
344_C9H10_0-3-14-12 (75,) energy =    -348.9480399
C           1.1007983    -0.9476595    -0.5290639
H           1.0710463    -0.1680322    -1.2854028
H           0.1573015    -1.1100564    -0.0149301
C           2.3855903    -1.1065817     0.2596812
H           2.2452623    -1.4234034     1.2933607
C           2.0030603    -2.1298395    -0.7814725
H           1.6825700    -3.1116024    -0.4439490
H           2.5596522    -2.1420960    -1.7145360
C           5.6899616     1.6301226    -0.2244552
H           6.5200988     2.3222683    -0.3385121
C           4.5370160     2.0215024     0.4611278
H           4.4664740     3.0211834     0.8824685
C           3.4722358     1.1331031     0.6027892
H           2.5736068     1.4440624     1.1308292
C           3.5353209    -0.1622309     0.0658416
C           4.6991818    -0.5431535    -0.6132291
H           4.7709490    -1.5463319    -1.0248641
C           5.7671881     0.3449766    -0.7610319
H           6.6609657     0.0292583    -1.2933123
19
344_C9H10_0-3-14-12 (90,) energy =    -348.9479923
C           1.1521245    -0.9867522    -0.6799602
H           1.2269203    -0.3248142    -1.5383089
H           0.1559857    -1.0557273    -0.2510052
C           2.3448173    -1.0447435     0.2603666
H           2.0816370    -1.2026429     1.3057349
C           2.0406821    -2.2032095    -0.6570265
H           1.6604246    -3.1173466    -0.2095456
H           2.6834755    -2.3699535    -1.5164330
C           5.6914666     1.6419287    -0.2232234
H           6.5279054     2.3262038    -0.3381249
C           4.5956103     1.9953421     0.5686485
H           4.5757767     2.9581109     1.0731600
C           3.5240876     1.1164659     0.7121199
H           2.6713425     1.3997340     1.3253861
C           3.5202909    -0.1338979     0.0722272
C           4.6295876    -0.4786809    -0.7094558
H           4.6628797    -1.4494644    -1.1955889
C           5.7038125     0.4018486    -0.8605259
H           6.5543378     0.1117471    -1.4723369
19
344_C9H10_0-3-14-12 (105,) energy =    -348.9481876
C           1.2074208    -1.0322389    -0.8240115
H           1.4023449    -0.5000960    -1.7510524
H           0.1679824    -1.0186616    -0.5069641
C           2.2866737    -0.9714916     0.2480653
H           1.9012003    -0.9728797     1.2662929
C           2.0458565    -2.2456927    -0.5244425
H           1.5893583    -3.0749964     0.0089172
H           2.7743321    -2.5549136    -1.2681153
C           5.6931367     1.6426974    -0.2080912
H           6.5417921     2.3124528    -0.3181249
C           4.6574332     1.9555328     0.6752508
H           4.6951533     2.8726808     1.2576819
C           3.5712329     1.0935976     0.8131897
H           2.7667450     1.3466754     1.5005153
C           3.4918988    -0.1010568     0.0788575
C           4.5413996    -0.4042638    -0.7986861
H           4.5209909    -1.3281659    -1.3694741
C           5.6290696     0.4593632    -0.9436076
H           6.4319328     0.1997149    -1.6290730
19
344_C9H10_0-3-14-12 (120,) energy =    -348.9487896
C           1.2837194    -1.1171516    -0.9437139
H           1.5789420    -0.6998725    -1.9027385
H           0.2163727    -1.0740904    -0.7437427
C           2.2420669    -0.9079665     0.2208550
H           1.7557144    -0.7843394     1.1864990
C           2.0787310    -2.2740838    -0.4054968
H           1.5632921    -3.0316209     0.1787047
H           2.8900052    -2.6678102    -1.0111430
C           5.7013283     1.6403194    -0.1962571
H           6.5640191     2.2932210    -0.2975626
C           4.7214004     1.9090636     0.7606354
H           4.8155078     2.7754598     1.4104815
C           3.6165390     1.0679351     0.8874094
H           2.8569424     1.2872986     1.6346628
C           3.4641892    -0.0623630     0.0693050
C           4.4572091    -0.3190815    -0.8878052
H           4.3743782    -1.1862626    -1.5374822
C           5.5621564     0.5223746    -1.0201748
H           6.3192117     0.2992019    -1.7678013
19
344_C9H10_0-3-14-12 (135,) energy =    -348.9494066
C           1.3344177    -1.2047276    -1.0222154
H           1.7031430    -0.8910835    -1.9953642
H           0.2530423    -1.1675092    -0.9208757
C           2.1784826    -0.8341054     0.1868968
H           1.6137143    -0.6105462     1.0894600
C           2.0933859    -2.2714652    -0.2866422
H           1.5380045    -2.9713699     0.3319295
H           2.9718372    -2.7018926    -0.7597759
C           5.7114522     1.6171059    -0.1806853
H           6.5961369     2.2418600    -0.2686802
C           4.7804720     1.8498962     0.8319323
H           4.9348283     2.6602292     1.5399629
C           3.6462084     1.0449308     0.9408852
H           2.9260970     1.2354664     1.7336650
C           3.4154571    -0.0110966     0.0469712
C           4.3604371    -0.2321414    -0.9675854
H           4.2135836    -1.0406079    -1.6796772
C           5.4942305     0.5713916    -1.0803404
H           6.2115118     0.3783269    -1.8741293
19
344_C9H10_0-3-14-12 (150,) energy =    -348.9494956
C           1.3901979    -1.2981901    -1.0885774
H           1.8116282    -1.0919804    -2.0688133
H           0.3038950    -1.2819587    -1.0621542
C           2.1307036    -0.7589514     0.1212989
H           1.4991725    -0.4518143     0.9519464
C           2.1169910    -2.2484178    -0.1829561
H           1.5373437    -2.8962381     0.4692895
H           3.0455931    -2.6885600    -0.5369652
C           5.7358733     1.5966065    -0.1578438
H           6.6427068     2.1921000    -0.2192948
C           4.8379988     1.7830566     0.8934440
H           5.0414154     2.5269838     1.6595662
C           3.6749962     1.0159122     0.9677262
H           2.9814313     1.1685966     1.7917711
C           3.3793196     0.0482497    -0.0036421
C           4.2927984    -0.1288150    -1.0552251
H           4.0976565    -0.8705936    -1.8260142
C           5.4562132     0.6354898    -1.1316620
H           6.1468599     0.4795002    -1.9566008
19
344_C9H10_0-3-14-12 (165,) energy =    -348.9489560
C           1.4368041    -1.4004554    -1.1199302
H           1.9142229    -1.3266042    -2.0929266
H           0.3510158    -1.3990677    -1.1656623
C           2.0817571    -0.6948606     0.0537513
H           1.3904891    -0.3001156     0.7953089
C           2.1062027    -2.2149132    -0.0521377
H           1.4887947    -2.7867345     0.6356277
H           3.0638708    -2.6735847    -0.2834933
C           5.7509605     1.5712207    -0.1391405
H           6.6759763     2.1403319    -0.1744604
C           4.8839088     1.6976871     0.9470478
H           5.1304147     2.3675971     1.7669371
C           3.6978821     0.9651154     0.9865397
H           3.0296768     1.0691355     1.8387119
C           3.3448680     0.0944809    -0.0560551
C           4.2270504    -0.0230745    -1.1409867
H           3.9890199    -0.6875935    -1.9674159
C           5.4157344     0.7056677    -1.1816800
H           6.0805631     0.5984587    -2.0351134
19
344_C9H10_0-3-14-12 (180,) energy =    -348.9482841
C           1.5123091    -1.5051517    -1.1429695
H           2.0755028    -1.5822607    -2.0682508
H           0.4354286    -1.5090138    -1.2882806
C           2.0555495    -0.6470300    -0.0245189
H           1.3016154    -0.1616581     0.5926178
C           2.0722141    -2.1671080     0.0843305
H           1.3895229    -2.6397880     0.7855220
H           3.0398053    -2.6542910     0.0002413
C           5.7651420     1.5605983    -0.1310805
H           6.6997684     2.1148663    -0.1420598
C           4.9346512     1.5997074     0.9909693
H           5.2199152     2.1854505     1.8612262
C           3.7367976     0.8874549     1.0001498
H           3.0977845     0.9206389     1.8800253
C           3.3349497     0.1235936    -0.1077312
C           4.1767155     0.0978457    -1.2281192
H           3.8916010    -0.4711837    -2.1083247
C           5.3799159     0.8059659    -1.2392096
H           6.0134892     0.7718503    -2.1219893
