20
290_C7H9ClN2O_9-0-1-3 (-165,) energy =    -917.0905360
C           2.5289476    -0.7374258    -1.0501002
N           1.2740695    -0.2317006    -1.2454959
H           1.0164445     0.6125934    -0.7540020
C           0.1980183    -1.0650406    -1.7551708
H           0.6410389    -1.8690183    -2.3432278
H          -0.4638765    -0.4718579    -2.3938207
H          -0.3958890    -1.5073082    -0.9435545
C           3.2840757     1.1807452     0.6196355
Cl          1.8009356     2.0371166     0.9732700
C           3.4515478     0.0744328    -0.2200873
N           4.8041484    -0.2432871    -0.1534726
C           5.5009407    -1.3222632    -0.8541947
H           6.5665515    -1.2154496    -0.6365665
H           5.3348758    -1.2537113    -1.9295845
H           5.1440695    -2.2961926    -0.5186716
C           5.4351304     0.6247279     0.6869818
H           6.4974645     0.5379205     0.8661717
C           4.5208440     1.5274843     1.1930764
H           4.7110831     2.3336644     1.8860210
O           2.8843069    -1.8165007    -1.5324010
20
290_C7H9ClN2O_9-0-1-3 (-150,) energy =    -917.0882391
C           2.5735106    -0.7142188    -1.1261802
N           1.3484694    -0.1680384    -1.4185293
H           1.1353397     0.7188785    -0.9813003
C           0.2008473    -1.0312901    -1.6676030
H           0.5589959    -1.9460497    -2.1404879
H          -0.5023409    -0.5326446    -2.3413274
H          -0.3218857    -1.2917517    -0.7369564
C           3.2670810     1.1590385     0.6159800
Cl          1.7661483     1.9891104     0.9538000
C           3.4686623     0.0829876    -0.2551425
N           4.8198816    -0.2304540    -0.1562055
C           5.5389186    -1.2817608    -0.8752707
H           6.6014598    -1.1642548    -0.6488344
H           5.3808819    -1.1891200    -1.9505327
H           5.1932349    -2.2683066    -0.5660808
C           5.4184635     0.6098049     0.7341209
H           6.4750754     0.5218232     0.9441906
C           4.4827114     1.4899327     1.2420006
H           4.6455957     2.2705706     1.9702652
O           2.9070547    -1.8295393    -1.5324768
20
290_C7H9ClN2O_9-0-1-3 (-135,) energy =    -917.0841375
C           2.6111152    -0.7016692    -1.2409939
N           1.3884504    -0.1523573    -1.5751140
H           1.2239587     0.7655014    -1.1797824
C           0.2005272    -1.0046543    -1.5656371
H           0.4843329    -1.9913845    -1.9334948
H          -0.5627376    -0.5878723    -2.2293127
H          -0.2205786    -1.1041500    -0.5557423
C           3.2266835     1.1229904     0.5771509
Cl          1.7104985     1.9376814     0.8800396
C           3.4685414     0.0723515    -0.3159071
N           4.8165540    -0.2398495    -0.1697911
C           5.5657410    -1.2690452    -0.8897015
H           6.6178755    -1.1602213    -0.6156533
H           5.4538282    -1.1423738    -1.9675814
H           5.2066293    -2.2639333    -0.6262141
C           5.3735898     0.5735320     0.7697612
H           6.4201902     0.4811379     1.0238587
C           4.4134430     1.4359524     1.2638551
H           4.5426305     2.1934158     2.0226727
O           2.9465977    -1.8201062    -1.6324133
20
290_C7H9ClN2O_9-0-1-3 (-120,) energy =    -917.0787045
C           2.6601538    -0.7107910    -1.3669702
N           1.4268993    -0.1794879    -1.7334069
H           1.2996672     0.7713166    -1.4039423
C           0.2305392    -0.9857025    -1.4653996
H           0.4272638    -2.0132512    -1.7758660
H          -0.6085239    -0.6002507    -2.0515722
H          -0.0429622    -0.9766522    -0.4011804
C           3.1752818     1.0735038     0.5170611
Cl          1.6396052     1.8671086     0.7671481
C           3.4694260     0.0473781    -0.3901413
N           4.8128866    -0.2566129    -0.1877410
C           5.6033090    -1.2614169    -0.8975622
H           6.6427210    -1.1447777    -0.5815022
H           5.5310353    -1.1144220    -1.9762606
H           5.2481158    -2.2661146    -0.6675294
C           5.3158788     0.5363813     0.7974111
H           6.3501453     0.4469188     1.0989550
C           4.3245148     1.3775734     1.2675705
H           4.4104429     2.1155414     2.0513250
O           3.0180940    -1.8197324    -1.7594018
20
290_C7H9ClN2O_9-0-1-3 (-105,) energy =    -917.0725769
C           2.6939736    -0.6638338    -1.4965140
N           1.4221007    -0.1745393    -1.8387754
H           1.3196209     0.7944355    -1.5505859
C           0.2795300    -0.9479432    -1.3261616
H           0.4123230    -1.9955008    -1.6051054
H          -0.6381187    -0.5810718    -1.7943141
H           0.1762741    -0.8764912    -0.2342848
C           3.1386997     1.0614253     0.4591919
Cl          1.6105650     1.8832406     0.6516304
C           3.4609104     0.0484137    -0.4558339
N           4.7927685    -0.2747589    -0.1993259
C           5.6083845    -1.2719821    -0.8917006
H           6.6278650    -1.1835519    -0.5085003
H           5.6043972    -1.0920788    -1.9675800
H           5.2247906    -2.2770424    -0.7147608
C           5.2571661     0.4894910     0.8252954
H           6.2739798     0.3786028     1.1753606
C           4.2550912     1.3340153     1.2671777
H           4.3139108     2.0545478     2.0694245
O           3.0987756    -1.7257703    -1.9605893
20
290_C7H9ClN2O_9-0-1-3 (-90,) energy =    -917.0705627
C           2.7431812    -0.4285348    -1.6187154
N           1.4042431     0.0294444    -1.7318349
H           1.2080527    -0.0353419    -2.7319246
C           0.3936838    -0.7968824    -1.0421221
H           0.5707258    -0.7715070     0.0366097
H           0.4000096    -1.8440318    -1.3780070
H          -0.5947565    -0.3682015    -1.2285352
C           3.2182538     1.0373158     0.5108436
Cl          1.7629743     1.9590187     0.7216037
C           3.5037121     0.0839102    -0.4790822
N           4.8001551    -0.3621306    -0.2162494
C           5.5616888    -1.3577944    -0.9673131
H           6.5021138    -1.5213794    -0.4354715
H           5.7609706    -1.0110236    -1.9819592
H           5.0103364    -2.2970968    -1.0324139
C           5.2888310     0.2916756     0.8706739
H           6.2884126     0.0879546     1.2289040
C           4.3362653     1.1722321     1.3519161
H           4.4292170     1.8334213     2.2007613
O           3.2682373    -1.0860800    -2.5152134
20
290_C7H9ClN2O_9-0-1-3 (-75,) energy =    -917.0751386
C           2.7675328    -0.3687451    -1.7095148
N           1.4039019    -0.0460209    -1.7882664
H           1.1495593    -0.1760984    -2.7669138
C           0.4572237    -0.7933409    -0.9439872
H           0.7480341    -0.7065214     0.1050091
H           0.4093294    -1.8590188    -1.2102409
H          -0.5384157    -0.3546033    -1.0527387
C           3.1817625     1.0442446     0.4742135
Cl          1.7436907     2.0072417     0.6251243
C           3.4835029     0.0984288    -0.5150196
N           4.7637385    -0.3667389    -0.2209113
C           5.5280749    -1.3666255    -0.9630983
H           6.4310350    -1.5853984    -0.3881413
H           5.7924832    -0.9960041    -1.9539329
H           4.9464337    -2.2819861    -1.0867349
C           5.2278362     0.2623270     0.8928812
H           6.2094832     0.0327548     1.2834103
C           4.2750546     1.1524624     1.3532125
H           4.3514051     1.8040760     2.2110774
O           3.3573968    -0.8771010    -2.6624345
20
290_C7H9ClN2O_9-0-1-3 (-60,) energy =    -917.0785853
C           2.8151744    -0.3034519    -1.8025654
N           1.4377316    -0.1312353    -1.8685987
H           1.1562200    -0.3040654    -2.8310040
C           0.5327946    -0.7834762    -0.9159172
H           0.9297331    -0.6881364     0.0953639
H           0.4001984    -1.8511688    -1.1410979
H          -0.4435608    -0.2914046    -0.9426307
C           3.1652860     1.0603071     0.4273817
Cl          1.7407398     2.0533083     0.5199315
C           3.4845445     0.1200325    -0.5582492
N           4.7488609    -0.3604744    -0.2342969
C           5.5203548    -1.3564654    -0.9734126
H           6.3960730    -1.6116509    -0.3722092
H           5.8276673    -0.9647803    -1.9435113
H           4.9249377    -2.2562791    -1.1417844
C           5.1870448     0.2483833     0.9030737
H           6.1507111    -0.0032799     1.3234350
C           4.2325372     1.1459887     1.3425903
H           4.2903467     1.7882877     2.2089159
O           3.4592168    -0.6699882    -2.7860826
20
290_C7H9ClN2O_9-0-1-3 (-45,) energy =    -917.0806021
C           2.8556844    -0.2680250    -1.8387134
N           1.4787749    -0.2363612    -1.8992189
H           1.1814699    -0.4224299    -2.8521278
C           0.5797784    -0.7658070    -0.8757963
H           1.0846718    -0.7676469     0.0902311
H           0.2762630    -1.7950148    -1.1105613
H          -0.3158678    -0.1429665    -0.7907298
C           3.1670728     1.0423372     0.4311534
Cl          1.7505715     2.0511227     0.4959544
C           3.4954469     0.1140089    -0.5599929
N           4.7512016    -0.3761539    -0.2262737
C           5.5262603    -1.3607415    -0.9760624
H           6.4041325    -1.6192836    -0.3797339
H           5.8284617    -0.9557243    -1.9421339
H           4.9349773    -2.2626637    -1.1517700
C           5.1750121     0.2110584     0.9295652
H           6.1283655    -0.0569669     1.3629753
C           4.2196109     1.1078423     1.3667567
H           4.2668880     1.7368722     2.2434113
O           3.5299880    -0.5158884    -2.8399373
20
290_C7H9ClN2O_9-0-1-3 (-30,) energy =    -917.0814464
C           2.8648786    -0.2399902    -1.8434795
N           1.4997063    -0.3525585    -1.8987964
H           1.1919666    -0.5374757    -2.8468587
C           0.5919008    -0.7560553    -0.8334289
H           1.1417507    -0.8346633     0.1047968
H           0.1514882    -1.7354346    -1.0593592
H          -0.2147767    -0.0283868    -0.6979046
C           3.1551755     1.0367713     0.4505604
Cl          1.7433914     2.0546524     0.5010007
C           3.4870615     0.1165062    -0.5446244
N           4.7402080    -0.3761220    -0.2103378
C           5.5154481    -1.3526135    -0.9697591
H           6.4051215    -1.6012040    -0.3870835
H           5.7974783    -0.9432650    -1.9400610
H           4.9322901    -2.2624723    -1.1349424
C           5.1581893     0.1985428     0.9551845
H           6.1070052    -0.0781276     1.3930168
C           4.2017047     1.0920796     1.3949512
H           4.2441141     1.7127719     2.2777790
O           3.5534046    -0.3887901    -2.8553889
20
290_C7H9ClN2O_9-0-1-3 (-15,) energy =    -917.0814114
C           2.8233130    -0.2269071    -1.8126501
N           1.4801323    -0.4752699    -1.8531006
H           1.1568825    -0.6410008    -2.7986615
C           0.5545893    -0.7500422    -0.7665970
H           1.1100195    -0.8660225     0.1649109
H           0.0170450    -1.6842047    -0.9675589
H          -0.1747862     0.0562079    -0.6341538
C           3.1216864     1.0266730     0.4965515
Cl          1.7190678     2.0584731     0.5491253
C           3.4458776     0.1136006    -0.5056979
N           4.6979381    -0.3856137    -0.1815869
C           5.4608126    -1.3617100    -0.9530404
H           6.3720868    -1.5926535    -0.3973234
H           5.7061511    -0.9584023    -1.9357910
H           4.8848655    -2.2817363    -1.0883923
C           5.1222533     0.1756588     0.9894876
H           6.0706507    -0.1105942     1.4219450
C           4.1713445     1.0690317     1.4396054
H           4.2195434     1.6830153     2.3268247
O           3.5077322    -0.2947616    -2.8361870
20
290_C7H9ClN2O_9-0-1-3 (0,) energy =    -917.0807513
C           2.4292119    -1.2602748    -0.3178190
N           1.2847893    -1.1450267    -1.0544597
H           0.7069298    -1.9744727    -0.9871513
C           0.7701895    -0.0218597    -1.8181977
H          -0.0145146     0.5230292    -1.2817718
H           0.3626447    -0.3869975    -2.7674671
H           1.5830316     0.6721002    -2.0366179
C           3.1706962     1.2272987     0.1810801
Cl          1.6737452     1.9586596     0.6931699
C           3.3481600    -0.0895209    -0.2363030
N           4.7130559    -0.2583025    -0.4077836
C           5.3727235    -1.4716079    -0.8788044
H           6.4483651    -1.3536218    -0.7325827
H           5.1751634    -1.6368964    -1.9439008
H           5.0080956    -2.3264478    -0.3098341
C           5.3545993     0.9191328    -0.1414139
H           6.4270007     0.9956372    -0.2534690
C           4.4284072     1.8674281     0.2410367
H           4.6218360     2.8863408     0.5424614
O           2.7246238    -2.3306774     0.2182272
20
290_C7H9ClN2O_9-0-1-3 (15,) energy =    -917.0814162
C           2.4359019    -1.2569196    -0.3487103
N           1.2321002    -1.0869978    -0.9726527
H           0.6635941    -1.9241372    -0.9264569
C           0.7768571    -0.0109870    -1.8371520
H          -0.0336178     0.5669181    -1.3802375
H           0.4234086    -0.4254970    -2.7887613
H           1.6064374     0.6661384    -2.0435805
C           3.1737804     1.2251388     0.1694481
Cl          1.6759909     1.9555831     0.6775368
C           3.3548768    -0.0910228    -0.2528677
N           4.7209469    -0.2550809    -0.4250435
C           5.3878767    -1.4615301    -0.9049401
H           6.4641407    -1.3282355    -0.7773870
H           5.1744577    -1.6304595    -1.9662483
H           5.0429933    -2.3207195    -0.3309098
C           5.3582712     0.9221974    -0.1522168
H           6.4309176     1.0011678    -0.2602126
C           4.4295518     1.8670140     0.2343032
H           4.6207844     2.8845265     0.5418141
O           2.7531658    -2.3536889     0.1179680
20
290_C7H9ClN2O_9-0-1-3 (30,) energy =    -917.0814464
C           2.4836971    -1.3534182    -0.2393645
N           1.2232608    -1.1547540    -0.7406225
H           0.6871434    -2.0148543    -0.7176934
C           0.7913423    -0.1483727    -1.7011285
H          -0.0702429     0.4157807    -1.3296469
H           0.5208609    -0.6223339    -2.6531747
H           1.6050270     0.5535339    -1.8855899
C           3.1835335     1.1321928     0.3164933
Cl          1.6727428     1.8558685     0.7914304
C           3.3825466    -0.1794628    -0.1163827
N           4.7523485    -0.3267176    -0.2799800
C           5.4468751    -1.5404554    -0.6991781
H           6.5034334    -1.2953035    -0.8272871
H           5.0477100    -1.9033403    -1.6500636
H           5.3256442    -2.3256028     0.0474407
C           5.3746990     0.8511231     0.0179482
H           6.4478675     0.9423487    -0.0741506
C           4.4318414     1.7837017     0.4026316
H           4.6094298     2.8029983     0.7123715
O           2.8453274    -2.4697806     0.1389586
20
290_C7H9ClN2O_9-0-1-3 (45,) energy =    -917.0806021
C           2.4825522    -1.3575561    -0.2689376
N           1.1790919    -1.1075614    -0.6418157
H           0.6514249    -1.9746898    -0.6152947
C           0.7692115    -0.1877096    -1.7009532
H          -0.1681895     0.3108543    -1.4362598
H           0.6336851    -0.7172724    -2.6536868
H           1.5333906     0.5773862    -1.8380258
C           3.1874742     1.1141862     0.3309642
Cl          1.6786176     1.8484724     0.7919414
C           3.3861659    -0.1960646    -0.1114829
N           4.7576942    -0.3434742    -0.2718875
C           5.4567069    -1.5514718    -0.7013461
H           6.5085874    -1.2951628    -0.8461384
H           5.0451021    -1.9191950    -1.6443805
H           5.3564109    -2.3386941     0.0462374
C           5.3798432     0.8290290     0.0420628
H           6.4540430     0.9184994    -0.0395133
C           4.4365183     1.7602564     0.4307848
H           4.6149763     2.7760315     0.7513956
O           2.8552194    -2.4979957     0.0122882
20
290_C7H9ClN2O_9-0-1-3 (60,) energy =    -917.0785853
C           2.4634904    -1.3294138    -0.3241396
N           1.1280826    -1.0321435    -0.5684422
H           0.6093733    -1.9063026    -0.5222948
C           0.7170786    -0.2205353    -1.7192240
H          -0.3016928     0.1456468    -1.5638748
H           0.7512863    -0.7920801    -2.6575321
H           1.3742884     0.6444857    -1.8148960
C           3.1808594     1.1178220     0.3477972
Cl          1.6763528     1.8730422     0.7837449
C           3.3753036    -0.1899364    -0.1098811
N           4.7497515    -0.3444105    -0.2560237
C           5.4511304    -1.5462332    -0.7000768
H           6.5017884    -1.2838124    -0.8439532
H           5.0374801    -1.9056643    -1.6446602
H           5.3571757    -2.3431305     0.0382164
C           5.3750192     0.8163739     0.0874065
H           6.4513423     0.8979279     0.0276727
C           4.4330600     1.7498154     0.4764490
H           4.6153303     2.7589370     0.8153596
O           2.8386042    -2.4914494    -0.1647387
20
290_C7H9ClN2O_9-0-1-3 (75,) energy =    -917.0751386
C           2.4615094    -1.2593986    -0.4255579
N           1.1031679    -0.9207116    -0.5257661
H           0.5956680    -1.7994676    -0.4278222
C           0.6404367    -0.2334909    -1.7427714
H          -0.4100044     0.0428418    -1.6169567
H           0.7403142    -0.8594321    -2.6411458
H           1.2124403     0.6850417    -1.8897793
C           3.2138598     1.1506892     0.3242707
Cl          1.7209755     1.9504049     0.7114903
C           3.3921146    -0.1586552    -0.1426765
N           4.7689780    -0.3377995    -0.2611607
C           5.4635999    -1.5423211    -0.7099959
H           6.5238210    -1.2959072    -0.8047876
H           5.0796962    -1.8700169    -1.6778343
H           5.3279403    -2.3566501     0.0023874
C           5.4068213     0.8036597     0.1154980
H           6.4860471     0.8626212     0.0901515
C           4.4744033     1.7527764     0.4920782
H           4.6693291     2.7537630     0.8475942
O           2.8257035    -2.4348789    -0.4200533
20
290_C7H9ClN2O_9-0-1-3 (90,) energy =    -917.0705627
C           2.4792973    -1.1943326    -0.5142260
N           1.1047411    -0.8417708    -0.4743290
H           0.6308516    -1.7280506    -0.2932093
C           0.5522238    -0.3099909    -1.7359489
H          -0.5131256    -0.1091198    -1.5937764
H           0.6772453    -1.0035312    -2.5801954
H           1.0407026     0.6368222    -1.9820865
C           3.2603939     1.1734635     0.3181586
Cl          1.7785597     2.0156134     0.6448783
C           3.4249280    -0.1358594    -0.1604058
N           4.8032346    -0.3396237    -0.2472933
C           5.4916479    -1.5500060    -0.6905072
H           6.5617944    -1.3300555    -0.7110733
H           5.1588120    -1.8401194    -1.6882904
H           5.2933044    -2.3808535    -0.0124052
C           5.4504498     0.7815001     0.1672704
H           6.5309857     0.8170446     0.1804340
C           4.5266481     1.7459175     0.5289948
H           4.7322037     2.7387727     0.9009287
O           2.8321513    -2.3603888    -0.6802538
20
290_C7H9ClN2O_9-0-1-3 (105,) energy =    -917.0725769
C           2.5207846    -1.1607179    -0.7785706
N           1.1318664    -1.0179376    -0.6213063
H           0.9195572    -0.3760687     0.1372426
C           0.3914920    -0.5985128    -1.8222737
H           0.6140012     0.4369168    -2.1161056
H          -0.6811033    -0.6903132    -1.6300442
H           0.6514073    -1.2676347    -2.6454020
C           3.1656485     1.1526548     0.3311788
Cl          1.6317268     1.9566629     0.5508665
C           3.3998155    -0.1188999    -0.2125106
N           4.7830505    -0.2903091    -0.1756164
C           5.5399408    -1.4597188    -0.6213344
H           6.5847091    -1.2974138    -0.3454371
H           5.4507064    -1.5911422    -1.6999274
H           5.1695281    -2.3645981    -0.1377173
C           5.3652981     0.8206528     0.3500674
H           6.4396786     0.8796087     0.4548650
C           4.3911327     1.7466453     0.6759116
H           4.5381913     2.7266635     1.1050558
O           2.9797238    -2.0603836    -1.4763643
20
290_C7H9ClN2O_9-0-1-3 (120,) energy =    -917.0787045
C           2.5388954    -1.0538520    -0.8701209
N           1.1695491    -0.9255466    -0.6558677
H           0.9507167    -0.2478435     0.0663475
C           0.3114767    -0.7279551    -1.8296465
H           0.3807074     0.2955350    -2.2235027
H          -0.7281459    -0.9362519    -1.5613269
H           0.6168763    -1.4317506    -2.6057581
C           3.2147320     1.2016632     0.3359211
Cl          1.6973923     2.0489181     0.5105455
C           3.4280057    -0.0617164    -0.2305220
N           4.8014238    -0.2773865    -0.1565498
C           5.5311984    -1.4600207    -0.6115778
H           6.5679906    -1.3521782    -0.2839989
H           5.4844672    -1.5493600    -1.6970866
H           5.1034980    -2.3651321    -0.1776804
C           5.4013619     0.8003540     0.4187025
H           6.4725880     0.8196876     0.5627180
C           4.4464851     1.7483930     0.7363335
H           4.6093728     2.7123986     1.1950411
O           2.9861641    -1.8962353    -1.6461462
20
290_C7H9ClN2O_9-0-1-3 (135,) energy =    -917.0841375
C           2.5299047    -0.9261605    -0.9145184
N           1.1764445    -0.7641884    -0.6904589
H           0.9501136    -0.0312490    -0.0291107
C           0.2570076    -0.8192049    -1.8259151
H           0.1951710     0.1464605    -2.3462802
H          -0.7424363    -1.1026324    -1.4830850
H           0.6174340    -1.5778547    -2.5216485
C           3.2703466     1.2634290     0.3783129
Cl          1.7827661     2.1620957     0.5621086
C           3.4445709     0.0148494    -0.2304443
N           4.8067568    -0.2557306    -0.1456361
C           5.5003208    -1.4477855    -0.6322273
H           6.5377498    -1.3835208    -0.2952658
H           5.4580857    -1.5024464    -1.7200772
H           5.0403705    -2.3512498    -0.2289991
C           5.4386328     0.7768702     0.4781462
H           6.5074385     0.7495882     0.6374708
C           4.5155706     1.7478071     0.8172892
H           4.7068867     2.6873163     1.3142452
O           2.9586431    -1.7664140    -1.7062359
20
290_C7H9ClN2O_9-0-1-3 (150,) energy =    -917.0882392
C           2.5327424    -0.8190432    -0.9717227
N           1.1904994    -0.6199871    -0.7637166
H           0.9383659     0.1496697    -0.1576872
C           0.2318030    -0.9213245    -1.8193546
H           0.0856078    -0.0654129    -2.4925805
H          -0.7322741    -1.1960895    -1.3810740
H           0.6137899    -1.7641384    -2.3959195
C           3.3120812     1.3033017     0.4115802
Cl          1.8460679     2.2360027     0.6034465
C           3.4610073     0.0736865    -0.2389890
N           4.8120245    -0.2406697    -0.1401935
C           5.4825412    -1.4337466    -0.6562256
H           6.5132454    -1.4115180    -0.2939693
H           5.4649787    -1.4468440    -1.7461285
H           4.9877687    -2.3376642    -0.2986226
C           5.4617348     0.7485682     0.5353089
H           6.5254497     0.6810091     0.7148790
C           4.5617686     1.7333370     0.8937653
H           4.7701172     2.6466573     1.4311046
O           2.9544788    -1.6711455    -1.7567886
20
290_C7H9ClN2O_9-0-1-3 (165,) energy =    -917.0905360
C           2.5254373    -0.7412507    -1.0232186
N           1.1940210    -0.4611993    -0.8893145
H           0.9306148     0.3533722    -0.3527512
C           0.2153526    -1.0019165    -1.8176245
H           0.0013255    -0.3038539    -2.6385681
H          -0.7179372    -1.2235150    -1.2906333
H           0.6201790    -1.9229556    -2.2373046
C           3.3345558     1.3202505     0.4373559
Cl          1.8864540     2.2776197     0.6484348
C           3.4652504     0.1132608    -0.2576303
N           4.8075938    -0.2352216    -0.1507631
C           5.4655996    -1.4217331    -0.6983485
H           6.5005718    -1.4097305    -0.3476722
H           5.4369662    -1.4123909    -1.7879656
H           4.9701521    -2.3304210    -0.3550013
C           5.4680645     0.7120759     0.5735316
H           6.5268925     0.6134041     0.7667780
C           4.5849109     1.7021909     0.9564849
H           4.8040064     2.5877721     1.5344449
O           2.9350233    -1.6551347    -1.7445848
20
290_C7H9ClN2O_9-0-1-3 (180,) energy =    -917.0911484
C           2.5090965    -0.6122858    -0.9520015
N           1.2122516    -0.2001706    -0.9754908
H           0.9331848     0.6295498    -0.4739294
C           0.2199163    -0.9473999    -1.7282768
H           0.4737776    -0.9790639    -2.7934969
H          -0.7495223    -0.4593572    -1.6049788
H           0.1511373    -1.9801787    -1.3702175
C           3.3452821     1.3571876     0.6141963
Cl          1.8962249     2.2868251     0.9213522
C           3.4656772     0.2003641    -0.1624796
N           4.8085489    -0.1561168    -0.0951737
C           5.4621911    -1.2975866    -0.7364279
H           6.5196817    -1.2601222    -0.4630705
H           5.3547979    -1.2463880    -1.8200941
H           5.0219878    -2.2357615    -0.3981700
C           5.4787708     0.7389976     0.6849163
H           6.5400585     0.6281539     0.8568020
C           4.6010868     1.6995637     1.1473003
H           4.8273993     2.5406375     1.7857849
O           2.8678590    -1.6231181    -1.5648405
