15
154_C4H8O3_3-2-12-10 (-165,) energy =    -382.8409559
O           1.6203712    -0.1265413    -0.1702241
H           1.9090532     0.6109737     0.3955106
C           2.5358586    -1.1698149     0.0641269
C           2.3299708    -2.4149279    -0.8158273
H           3.1107131    -2.6624121    -1.5466838
H           1.3492056    -2.4090126    -1.3097022
C           2.2311643    -2.1500380     1.2295772
H           1.2061600    -2.0373615     1.6061003
H           2.9390695    -2.1935989     2.0643434
O           2.3633571    -3.2832009     0.3367881
O           4.0284019     0.2598922     1.1941754
H           4.8678557     0.7410668     1.1518557
C           3.9597778    -0.6375545     0.0838375
H           4.1658007    -0.1200658    -0.8651736
H           4.6722826    -1.4679583     0.1954400
15
154_C4H8O3_3-2-12-10 (-150,) energy =    -382.8381699
O           1.5812359    -0.1463769    -0.2557821
H           1.7731285     0.5870830     0.3529470
C           2.5238177    -1.1561515     0.0275543
C           2.3477890    -2.4449558    -0.7989633
H           3.1354503    -2.7068953    -1.5168030
H           1.3691401    -2.4769907    -1.2965836
C           2.2231717    -2.0986390     1.2277321
H           1.1897829    -1.9919823     1.5837405
H           2.9197898    -2.0922577     2.0710894
O           2.3910538    -3.2640124     0.3845308
O           4.0923156     0.0632535     1.3211309
H           4.9306078     0.5487469     1.3111977
C           3.9435099    -0.6041934     0.0666868
H           4.0887772     0.0788797    -0.7833564
H           4.6661996    -1.4294916    -0.0197137
15
154_C4H8O3_3-2-12-10 (-135,) energy =    -382.8338716
O           1.5824448    -0.1804498    -0.3246609
H           1.6674783     0.5506565     0.3094930
C           2.5449876    -1.1526706     0.0288150
C           2.3991380    -2.4749562    -0.7546734
H           3.2108559    -2.7588055    -1.4360456
H           1.4375467    -2.5278472    -1.2829371
C           2.2172050    -2.0581781     1.2520107
H           1.1743628    -1.9391008     1.5765451
H           2.8932928    -2.0223257     2.1091875
O           2.4047780    -3.2518021     0.4553669
O           4.2352469    -0.1590449     1.4192208
H           5.0907312     0.2960355     1.4254286
C           3.9644573    -0.5714772     0.0800104
H           4.0241280     0.2657685    -0.6310443
H           4.6912221    -1.3367325    -0.2321985
15
154_C4H8O3_3-2-12-10 (-120,) energy =    -382.8301318
O           1.5574591    -0.2199751    -0.3938268
H           1.5588734     0.5270720     0.2269581
C           2.5504845    -1.1364048     0.0338959
C           2.4200200    -2.4864183    -0.7063186
H           3.2895895    -2.8233874    -1.2847693
H           1.5194044    -2.5299336    -1.3322134
C           2.1955003    -1.9891116     1.2858090
H           1.1767581    -1.7880311     1.6435776
H           2.9042915    -1.9753092     2.1163240
O           2.2731177    -3.2164400     0.5249332
O           4.3933219    -0.3375851     1.4034348
H           5.2701708     0.0745923     1.3837795
C           3.9541561    -0.4901182     0.0565238
H           3.8869227     0.4782989    -0.4619475
H           4.6632315    -1.1162222    -0.5063126
15
154_C4H8O3_3-2-12-10 (-105,) energy =    -382.8291399
O           1.5431596    -0.3199674    -0.4931826
H           1.4407131     0.4399791     0.1032055
C           2.5641524    -1.1549544     0.0384498
C           2.4762598    -2.5345235    -0.6457359
H           3.4321614    -2.9465507    -0.9969445
H           1.7310709    -2.5800864    -1.4483134
C           2.1549714    -1.9403860     1.3123291
H           1.1971167    -1.6141431     1.7374062
H           2.9164339    -2.0090042     2.0934168
O           2.0302460    -3.1737061     0.5671543
O           4.5268437    -0.4998963     1.3225505
H           5.4131755    -0.1132105     1.2599845
C           3.9253391    -0.4229659     0.0350189
H           3.7431490     0.6238347    -0.2543536
H           4.5793166    -0.8610970    -0.7348314
15
154_C4H8O3_3-2-12-10 (-90,) energy =    -382.8313842
O           1.6513851    -0.7270808     1.5152076
H           1.6347612     0.2430874     1.4876282
C           2.5451725    -1.1925714     0.5228764
C           1.9880839    -1.3386882    -0.9156272
H           2.3894708    -0.6925726    -1.7070327
H           0.8899055    -1.3357175    -0.9443039
C           2.6450037    -2.7224349     0.4639469
H           1.7754834    -3.2022069     0.9310671
H           3.5743853    -3.1897029     0.7967211
O           2.5309832    -2.6840478    -0.9852602
O           5.0534855    -1.2762641     0.4810389
H           5.0317526    -1.7004575    -0.3931177
C           3.9081737    -0.4470278     0.5831216
H           3.9853112     0.0158000     1.5724409
H           3.9247156     0.3573089    -0.1707980
15
154_C4H8O3_3-2-12-10 (-75,) energy =    -382.8346291
O           1.6207801    -0.6822757     1.4778641
H           1.6263799     0.2872485     1.4247617
C           2.5460384    -1.1902362     0.5383682
C           2.0529964    -1.3747211    -0.9174526
H           2.4904969    -0.7504161    -1.7075098
H           0.9575658    -1.3727977    -0.9968553
C           2.6477413    -2.7214624     0.5307692
H           1.7592557    -3.1924520     0.9696715
H           3.5639674    -3.1782351     0.9117649
O           2.5985410    -2.7226405    -0.9245245
O           5.0181297    -1.2492585     0.2622292
H           4.8152648    -1.6749120    -0.5886959
C           3.9015353    -0.4563021     0.6258740
H           4.0682056    -0.1783714     1.6720925
H           3.8488595     0.4735654     0.0316312
15
154_C4H8O3_3-2-12-10 (-60,) energy =    -382.8368852
O           1.6154896    -0.6476223     1.4486082
H           1.6546504     0.3215258     1.4012120
C           2.5531629    -1.1796966     0.5410211
C           2.1073368    -1.3951337    -0.9269525
H           2.5613582    -0.7816352    -1.7154824
H           1.0151373    -1.4083967    -1.0378493
C           2.6556494    -2.7129503     0.5660796
H           1.7517311    -3.1827645     0.9728891
H           3.5568033    -3.1643022     0.9896111
O           2.6663382    -2.7374860    -0.8913892
O           4.9733891    -1.1816282     0.0310369
H           4.6023419    -1.7108293    -0.6970199
C           3.9127325    -0.4742805     0.6486749
H           4.1679464    -0.3735740     1.7104498
H           3.8143483     0.5445481     0.2287425
15
154_C4H8O3_3-2-12-10 (-45,) energy =    -382.8375851
O           1.6055691    -0.6211661     1.4237016
H           1.6444960     0.3474666     1.3689492
C           2.5523299    -1.1589726     0.5320600
C           2.1399824    -1.4040932    -0.9421958
H           2.6136824    -0.8080349    -1.7297760
H           1.0511622    -1.4293504    -1.0761313
C           2.6531931    -2.6921660     0.5894408
H           1.7406867    -3.1569845     0.9825275
H           3.5406725    -3.1400305     1.0489529
O           2.7044835    -2.7451953    -0.8656349
O           4.9093452    -1.0091304    -0.1905825
H           4.5312322    -1.7744864    -0.6599059
C           3.9123543    -0.4652388     0.6575238
H           4.2360860    -0.5315467     1.7070236
H           3.7862945     0.6046520     0.4170318
15
154_C4H8O3_3-2-12-10 (-30,) energy =    -382.8374971
O           1.6046635    -0.6092748     1.4142804
H           1.6193916     0.3566499     1.3182121
C           2.5442815    -1.1619607     0.5242969
C           2.1405644    -1.4399256    -0.9478783
H           2.6250135    -0.8659211    -1.7427817
H           1.0513136    -1.4596100    -1.0824041
C           2.6291061    -2.6960206     0.6112882
H           1.7100004    -3.1433429     1.0111869
H           3.5066189    -3.1451129     1.0920087
O           2.6907830    -2.7824539    -0.8382024
O           4.8231926    -0.8308697    -0.3802067
H           4.6374610    -1.7475945    -0.6500877
C           3.9197388    -0.4888486     0.6557540
H           4.3275151    -0.7256448     1.6521578
H           3.7933377     0.6026843     0.6052951
15
154_C4H8O3_3-2-12-10 (-15,) energy =    -382.8354267
O           1.5945366    -0.5634237     1.3719720
H           1.6122644     0.3972332     1.2337244
C           2.5432167    -1.1549729     0.5178718
C           2.1702940    -1.4881505    -0.9521794
H           2.6628726    -0.9389140    -1.7583113
H           1.0820334    -1.5135672    -1.0985945
C           2.6041749    -2.6890059     0.6548263
H           1.6647070    -3.1141386     1.0325400
H           3.4572901    -3.1329711     1.1820907
O           2.7190771    -2.8210722    -0.7865709
O           4.7669033    -0.6354679    -0.4759461
H           4.7649506    -1.5736220    -0.7346177
C           3.9410989    -0.5097194     0.6677260
H           4.4222774    -0.9062921     1.5760446
H           3.8185816     0.5718081     0.8150770
15
154_C4H8O3_3-2-12-10 (0,) energy =    -382.8323533
O           1.5770116    -0.5210524     1.3233496
H           1.5974890     0.4287050     1.1237069
C           2.5337979    -1.1661871     0.5154889
C           2.1763486    -1.5455071    -0.9463745
H           2.6968731    -1.0388948    -1.7626634
H           1.0898583    -1.5371357    -1.1097661
C           2.5435144    -2.6960941     0.7086474
H           1.5841819    -3.0752512     1.0860066
H           3.3728950    -3.1472146     1.2664577
O           2.6765840    -2.8865841    -0.7228188
O           4.6920673    -0.4132110    -0.5285086
H           4.8653177    -1.3105118    -0.8590609
C           3.9509629    -0.5404618     0.6730368
H           4.5120690    -1.0930292     1.4418287
H           3.8332468     0.4852248     1.0430478
15
154_C4H8O3_3-2-12-10 (15,) energy =    -382.8305172
O           1.6020008    -0.4812784     1.2529847
H           1.6461983     0.4529266     0.9923648
C           2.5685735    -1.1929967     0.5076329
C           2.2125329    -1.6036387    -0.9437081
H           2.7924895    -1.1750179    -1.7655191
H           1.1365447    -1.4990886    -1.1393782
C           2.4983560    -2.7120399     0.7615475
H           1.5309899    -3.0166078     1.1823920
H           3.3163830    -3.1843989     1.3186057
O           2.5818669    -2.9751348    -0.6600880
O           4.6351876    -0.1832591    -0.5274770
H           4.9441378    -0.9843526    -0.9787164
C           3.9958441    -0.5842426     0.6748901
H           4.6308622    -1.2773091     1.2456931
H           3.9010213     0.3261151     1.2764567
15
154_C4H8O3_3-2-12-10 (30,) energy =    -382.8313489
O           1.6175893    -0.4428738     1.1680252
H           1.7097222     0.4724092     0.8561847
C           2.6007665    -1.2250511     0.5107340
C           2.2525348    -1.6748184    -0.9299706
H           2.9179440    -1.3764067    -1.7470608
H           1.2138413    -1.4353144    -1.1927150
C           2.4447822    -2.7221838     0.8400186
H           1.4918465    -2.9381761     1.3390307
H           3.2664937    -3.2175607     1.3715806
O           2.4207380    -3.0662068    -0.5650725
O           4.5330970     0.0461828    -0.4491366
H           4.8836310    -0.6253857    -1.0524730
C           4.0185599    -0.6207121     0.6967580
H           4.7177302    -1.4000165     1.0338288
H           3.9616722     0.1285279     1.4925322
15
154_C4H8O3_3-2-12-10 (45,) energy =    -382.8346723
O           1.6622416    -0.3841926     1.0707764
H           1.8225308     0.5069379     0.7165825
C           2.6507003    -1.2365247     0.5115466
C           2.3214187    -1.7346076    -0.9190516
H           3.0782147    -1.6046301    -1.7050998
H           1.3542311    -1.3669434    -1.2825338
C           2.4164650    -2.7020866     0.9165693
H           1.4978654    -2.8363906     1.4993782
H           3.2489982    -3.2233066     1.4058251
O           2.2597913    -3.1068037    -0.4636460
O           4.4120791     0.2682875    -0.3318100
H           4.6331297    -0.2574854    -1.1145939
C           4.0509830    -0.6334282     0.7100886
H           4.8017074    -1.4331298     0.8053856
H           4.0561663    -0.0577039     1.6400524
15
154_C4H8O3_3-2-12-10 (60,) energy =    -382.8386942
O           1.6374995    -0.3044065     0.9788371
H           1.9200435     0.5723464     0.6651298
C           2.5864162    -1.2284351     0.4811682
C           2.2959001    -1.7736228    -0.9418688
H           3.0566354    -1.6416013    -1.7251508
H           1.3188629    -1.4513526    -1.3224794
C           2.3103768    -2.6724123     0.9282300
H           1.3395587    -2.7754136     1.4278724
H           3.0875195    -3.1785896     1.5144619
O           2.2767075    -3.1326670    -0.4441160
O           4.2703309     0.3954187    -0.2019534
H           4.3846005     0.0233756    -1.0897558
C           3.9997954    -0.6857576     0.6886863
H           4.7435418    -1.4883339     0.5702561
H           4.0875234    -0.2833869     1.7021852
15
154_C4H8O3_3-2-12-10 (75,) energy =    -382.8414209
O           1.6731869    -0.2314140     0.8927567
H           2.0648851     0.6254493     0.6445429
C           2.5817145    -1.2104705     0.4467983
C           2.3123844    -1.8313852    -0.9518450
H           3.0651399    -1.7036196    -1.7434486
H           1.3202619    -1.5663310    -1.3392492
C           2.2878204    -2.6307799     0.9566252
H           1.2855317    -2.7140323     1.3956231
H           3.0255179    -3.0996931     1.6200666
O           2.3469506    -3.1626260    -0.3887516
O           4.2274763     0.5014531    -0.0497080
H           4.2712111     0.2919557    -0.9962527
C           4.0111900    -0.7218021     0.6565714
H           4.7354656    -1.4939229     0.3599417
H           4.1656252    -0.4886958     1.7146822
15
154_C4H8O3_3-2-12-10 (90,) energy =    -382.8416671
O           1.6799151    -0.2274884     0.7831734
H           2.1564099     0.6093150     0.6268268
C           2.5647652    -1.2431281     0.3909068
C           2.2975838    -1.9540142    -0.9678518
H           3.0466312    -1.8648850    -1.7674979
H           1.3009661    -1.7213872    -1.3656648
C           2.2622902    -2.6339167     0.9812577
H           1.2524454    -2.6910079     1.4079928
H           2.9881873    -3.0613753     1.6853617
O           2.3450519    -3.2462987    -0.3268289
O           4.1976651     0.5437032     0.1186292
H           4.2416258     0.5038931    -0.8504528
C           4.0094266    -0.7873908     0.6081329
H           4.7196604    -1.4960382     0.1621017
H           4.2101562    -0.7273937     1.6827698
15
154_C4H8O3_3-2-12-10 (105,) energy =    -382.8396777
O           1.6831575    -0.1930536     0.6618827
H           2.2237388     0.6199067     0.6336463
C           2.5554030    -1.2380806     0.3364203
C           2.2857124    -2.0342081    -0.9753147
H           3.0333246    -1.9930943    -1.7797377
H           1.2886326    -1.8231384    -1.3848397
C           2.2374560    -2.5943256     1.0064563
H           1.2217569    -2.6178848     1.4233089
H           2.9508464    -2.9852946     1.7442856
O           2.3304803    -3.2848237    -0.2601243
O           4.1815100     0.5999747     0.3038267
H           4.2523365     0.7331972    -0.6552260
C           4.0186426    -0.8004264     0.5537567
H           4.7109212    -1.4102524    -0.0391356
H           4.2765565    -0.9226726     1.6106564
15
154_C4H8O3_3-2-12-10 (120,) energy =    -382.8368104
O           1.6869713    -0.1746567     0.4840338
H           2.2552216     0.5928109     0.6910824
C           2.5578474    -1.2518113     0.2806975
C           2.2860954    -2.1300106    -0.9723572
H           3.0537907    -2.1657450    -1.7579453
H           1.3074068    -1.9124725    -1.4210721
C           2.2057197    -2.5577479     1.0416468
H           1.1930826    -2.5253696     1.4652515
H           2.9140376    -2.9223162     1.7980992
O           2.2702364    -3.3312184    -0.1768324
O           4.1672321     0.6156083     0.4839056
H           4.1968188     0.9189393    -0.4377032
C           4.0380891    -0.8096177     0.4843273
H           4.6984826    -1.2744920    -0.2572010
H           4.3798191    -1.1165476     1.4771424
15
154_C4H8O3_3-2-12-10 (135,) energy =    -382.8355581
O           1.7301769    -0.1380021     0.2694303
H           2.2037497     0.5411994     0.7862374
C           2.5858713    -1.2527328     0.2320545
C           2.2939442    -2.1987105    -0.9541657
H           3.1026126    -2.3624043    -1.6801203
H           1.3701186    -1.9307387    -1.4831118
C           2.1608215    -2.4770209     1.0906122
H           1.1719587    -2.3443582     1.5480750
H           2.8733291    -2.8459720     1.8410407
O           2.1193763    -3.3297365    -0.0751198
O           4.1769781     0.6002435     0.6599320
H           4.0800429     1.0627425    -0.1875045
C           4.0742940    -0.8011520     0.4017259
H           4.6649990    -1.0762493    -0.4817433
H           4.5258353    -1.2905275     1.2687723
15
154_C4H8O3_3-2-12-10 (150,) energy =    -382.8363823
O           1.7723913    -0.1173099     0.1378290
H           2.1383451     0.5017993     0.7963533
C           2.6074394    -1.2518273     0.1914163
C           2.3054681    -2.2420890    -0.9491930
H           3.1349426    -2.4894992    -1.6263439
H           1.4229664    -1.9539841    -1.5341723
C           2.1309866    -2.4114988     1.1089790
H           1.1563598    -2.2136015     1.5725030
H           2.8371059    -2.7806216     1.8647652
O           2.0307225    -3.3116245    -0.0176768
O           4.1959305     0.5150646     0.8619352
H           4.0954749     1.1307360     0.1199360
C           4.0918285    -0.8069711     0.3291807
H           4.5896816    -0.8616628    -0.6486649
H           4.6345103    -1.4626988     1.0155764
15
154_C4H8O3_3-2-12-10 (165,) energy =    -382.8389221
O           1.6596791    -0.1197621     0.0463737
H           2.0910463     0.6356727     0.4863469
C           2.5499553    -1.2004395     0.1738272
C           2.2960988    -2.3016097    -0.8724680
H           3.1017613    -2.5250340    -1.5851055
H           1.3544769    -2.1437018    -1.4132541
C           2.1756572    -2.3059644     1.1973592
H           1.1754833    -2.1556485     1.6222428
H           2.8932995    -2.5335883     1.9956856
O           2.1854554    -3.3127008     0.1573241
O           3.9958957     0.5373169     0.9449627
H           4.8162494     1.0151195     0.7574002
C           3.9969658    -0.6862014     0.2064152
H           4.3273405    -0.5013718    -0.8266859
H           4.6671737    -1.4327219     0.6540006
15
154_C4H8O3_3-2-12-10 (180,) energy =    -382.8411583
O           1.6340474    -0.1421297    -0.0643942
H           1.9988168     0.6085408     0.4381751
C           2.5376934    -1.2022935     0.1285623
C           2.3157444    -2.3896987    -0.8230981
H           3.1064527    -2.6197887    -1.5494646
H           1.3468999    -2.3296228    -1.3356075
C           2.2096067    -2.2360879     1.2382350
H           1.1914133    -2.1131577     1.6286762
H           2.9198024    -2.3512963     2.0655997
O           2.3021825    -3.3216993     0.2833919
O           3.9861732     0.4148371     1.0668122
H           4.8151251     0.9028841     0.9574167
C           3.9671961    -0.6717943     0.1384355
H           4.2238016    -0.3235007    -0.8735766
H           4.6710482    -1.4662600     0.4241176
