18
315_C7H9NO_0-4-12-10 (-165,) energy =    -402.1523598
C           1.5172813    -0.7122114    -1.2935050
H           1.3624491     0.2397035    -1.8120627
H           0.5569201    -1.2368524    -1.2737491
H           2.2198107    -1.3106852    -1.8826154
C           2.0282078    -0.5010247     0.1338484
H           2.0819860    -1.4730407     0.6445958
H           1.2978224     0.0932713     0.7026115
C           5.8830016     1.3409232     0.7549186
H           6.8476895     1.7852083     0.9722158
C           5.2389955     0.6257280     1.8401903
N           3.9905287     0.0745672     1.4706656
H           3.5350701    -0.4317729     2.2227444
C           3.3806253     0.1650586     0.2461094
C           4.0257469     0.8473672    -0.7502893
H           3.5789832     0.9364092    -1.7318344
C           5.2942909     1.4377090    -0.4732426
H           5.8014845     1.9782844    -1.2692688
O           5.6625773     0.4649638     2.9812352
18
315_C7H9NO_0-4-12-10 (-150,) energy =    -402.1518618
C           1.5649988    -0.8123962    -1.3040369
H           1.5004048     0.0556937    -1.9679124
H           0.5807171    -1.2916158    -1.2948874
H           2.2847393    -1.5158199    -1.7348835
C           1.9671583    -0.4111103     0.1194134
H           1.9233282    -1.2978094     0.7663000
H           1.2269883     0.2927617     0.5269269
C           5.8858385     1.2867077     0.7649256
H           6.8663141     1.6935730     0.9848036
C           5.2625884     0.4953167     1.8075884
N           3.9921538    -0.0027923     1.4344394
H           3.5502494    -0.5602236     2.1577189
C           3.3435906     0.2035361     0.2454213
C           3.9705670     0.9566623    -0.7119557
H           3.4926991     1.1387827    -1.6659667
C           5.2587670     1.4978423    -0.4300993
H           5.7509926     2.0947199    -1.1946817
O           5.7171549     0.2315286     2.9172082
18
315_C7H9NO_0-4-12-10 (-135,) energy =    -402.1515336
C           1.6285967    -0.9288980    -1.2578170
H           1.6900906    -0.1830042    -2.0564146
H           0.6159395    -1.3454671    -1.2711412
H           2.3334229    -1.7328731    -1.4934523
C           1.9304859    -0.3143193     0.1160960
H           1.7937767    -1.0802735     0.8902401
H           1.1941588     0.4711194     0.3358273
C           5.8993583     1.2767637     0.7337846
H           6.8947532     1.6527737     0.9410692
C           5.3072001     0.4201135     1.7413597
N           4.0110643    -0.0274436     1.3894730
H           3.5904691    -0.6302033     2.0885113
C           3.3210010     0.2688207     0.2451378
C           3.9207585     1.0822092    -0.6810961
H           3.4035660     1.3418155    -1.5965926
C           5.2271068     1.5839930    -0.4157887
H           5.6973840     2.2293452    -1.1543760
O           5.8019015     0.0670158     2.8082470
18
315_C7H9NO_0-4-12-10 (-120,) energy =    -402.1516110
C           1.5302446    -1.3024941    -0.0635522
H           2.1884825    -2.1743189    -0.1306907
H           0.5697726    -1.5695165    -0.5172697
H           1.3607137    -1.0916552     0.9976328
C           2.1405314    -0.0863717    -0.7794710
H           1.4356899     0.7534114    -0.7400916
H           2.2755679    -0.3212729    -1.8431113
C           5.8483801     1.3560700     0.9032483
H           6.7550808     1.7634910     1.3357784
C           4.6931832     2.2299693     0.8751637
N           3.5554666     1.6195858     0.2930214
H           2.7414647     2.2243628     0.2708364
C           3.4704273     0.3480228    -0.2042829
C           4.5891966    -0.4434755    -0.1587650
H           4.5574566    -1.4526019    -0.5527134
C           5.7846297     0.0839547     0.4066571
H           6.6692356    -0.5480613     0.4402028
O           4.6174054     3.3843852     1.2866135
18
315_C7H9NO_0-4-12-10 (-105,) energy =    -402.1520678
C           1.4829496    -1.2036365     0.0182151
H           2.1084444    -2.0954886     0.1251025
H           0.5346905    -1.5044765    -0.4401714
H           1.2704132    -0.8211879     1.0223956
C           2.1844070    -0.1399452    -0.8456225
H           1.5206398     0.7225911    -0.9847690
H           2.3690233    -0.5509048    -1.8452168
C           5.8308265     1.3486582     0.9195988
H           6.7191596     1.7639340     1.3817349
C           4.6386657     2.1720474     0.9531768
N           3.5281136     1.5577106     0.3251658
H           2.6887422     2.1270537     0.3428243
C           3.4994254     0.3228098    -0.2632928
C           4.6516565    -0.4198045    -0.2762722
H           4.6606773    -1.3976714    -0.7441040
C           5.8234832     0.1150724     0.3304769
H           6.7353913    -0.4777035     0.3185378
O           4.5149109     3.2897712     1.4461396
18
315_C7H9NO_0-4-12-10 (-90,) energy =    -402.1527310
C           1.4242545    -1.0923248     0.0776872
H           1.9988385    -1.9802405     0.3599252
H           0.4891929    -1.4216390    -0.3879701
H           1.1735174    -0.5498382     0.9959224
C           2.2278916    -0.2079249    -0.8944434
H           1.6191760     0.6507791    -1.2065510
H           2.4505481    -0.7777609    -1.8032018
C           5.8172904     1.3423563     0.9264676
H           6.6887178     1.7707553     1.4084463
C           4.5850647     2.1002479     1.0256292
N           3.4997012     1.4742861     0.3675582
H           2.6337320     1.9993973     0.4275270
C           3.5277054     0.2827003    -0.3062873
C           4.7152826    -0.3965678    -0.3806466
H           4.7668555    -1.3382137    -0.9150664
C           5.8662294     0.1541360     0.2532124
H           6.8068028    -0.3887353     0.1925370
O           4.4133382     3.1750339     1.5936295
18
315_C7H9NO_0-4-12-10 (-75,) energy =    -402.1532347
C           1.3641420    -0.9667895     0.1193299
H           1.8660613    -1.8255418     0.5766811
H           0.4443907    -1.3203945    -0.3584075
H           1.0817324    -0.2780346     0.9233690
C           2.2799607    -0.2864851    -0.9157318
H           1.7418063     0.5426706    -1.3956124
H           2.5273423    -0.9986463    -1.7097051
C           5.8264462     1.3370820     0.9218981
H           6.6852342     1.7836737     1.4100213
C           4.5571250     2.0171942     1.0973977
N           3.4903629     1.3734559     0.4277580
H           2.5991714     1.8450049     0.5404333
C           3.5662916     0.2300655    -0.3232691
C           4.7856800    -0.3767414    -0.4656924
H           4.8736718    -1.2804123    -1.0574435
C           5.9224559     0.1976154     0.1745785
H           6.8889051    -0.2877427     0.0586695
O           4.3442894     3.0436193     1.7362852
18
315_C7H9NO_0-4-12-10 (-60,) energy =    -402.1531316
C           1.2952497    -0.8494168     0.1279370
H           1.7184494    -1.6309591     0.7674263
H           0.4124044    -1.2579479    -0.3744647
H           0.9559899    -0.0346020     0.7773988
C           2.3249814    -0.3705284    -0.9112280
H           1.8634961     0.3962664    -1.5505062
H           2.5974820    -1.2003356    -1.5709472
C           5.8200585     1.3684472     0.9242801
H           6.6653664     1.8425685     1.4099569
C           4.5163664     1.9494768     1.1834101
N           3.4690548     1.2733485     0.5148608
H           2.5552958     1.6779717     0.6877790
C           3.5910533     0.1863529    -0.3100456
C           4.8410715    -0.3294693    -0.5262407
H           4.9657277    -1.1908761    -1.1717790
C           5.9617360     0.2831781     0.1071227
H           6.9524196    -0.1297340    -0.0692187
O           4.2607194     2.9198813     1.8905536
18
315_C7H9NO_0-4-12-10 (-45,) energy =    -402.1524184
C           1.2236898    -0.7339257     0.1047519
H           1.5480829    -1.3954898     0.9148745
H           0.3842696    -1.2119570    -0.4101533
H           0.8377069     0.1870917     0.5565727
C           2.3649241    -0.4658977    -0.8897680
H           1.9960415     0.2053292    -1.6798355
H           2.6479254    -1.3978305    -1.3893824
C           5.8266349     1.3920434     0.9030630
H           6.6645648     1.8931541     1.3741799
C           4.5043560     1.8734701     1.2521762
N           3.4683013     1.1664658     0.5966956
H           2.5424284     1.4991801     0.8405279
C           3.6149048     0.1326267    -0.2884424
C           4.8827953    -0.2946050    -0.5836103
H           5.0285331    -1.1162990    -1.2750120
C           5.9932051     0.3578543     0.0260104
H           6.9971845     0.0158967    -0.2151926
O           4.2221887     2.7868680     2.0226242
18
315_C7H9NO_0-4-12-10 (-30,) energy =    -402.1515233
C           1.1693119    -0.6170018     0.0775268
H           1.3970894    -1.1361141     1.0148039
H           0.3584301    -1.1586622    -0.4193104
H           0.7782372     0.3773462     0.3236645
C           2.3936469    -0.5513954    -0.8462652
H           2.1179756    -0.0016774    -1.7584064
H           2.6638294    -1.5605532    -1.1747603
C           5.8350416     1.4093295     0.8856400
H           6.6687223     1.9325605     1.3398876
C           4.5097362     1.7959409     1.3247413
N           3.4800824     1.0632621     0.6852542
H           2.5524790     1.3286462     0.9948998
C           3.6347642     0.0871480    -0.2596008
C           4.9077203    -0.2537467    -0.6378906
H           5.0609836    -1.0317568    -1.3769024
C           6.0104102     0.4299660    -0.0517249
H           7.0174730     0.1573483    -0.3593789
O           4.2162208     2.6510500     2.1558150
18
315_C7H9NO_0-4-12-10 (-15,) energy =    -402.1508166
C           1.1278015    -0.5167607     0.0351909
H           1.2586228    -0.9012151     1.0530445
H           0.3245826    -1.0922381    -0.4349700
H           0.7786045     0.5207541     0.0996004
C           2.4112217    -0.6446489    -0.7938759
H           2.2240466    -0.2443119    -1.8001329
H           2.6526862    -1.7042678    -0.9367804
C           5.8361545     1.4124477     0.8659298
H           6.6667170     1.9534201     1.3047810
C           4.5190715     1.7093381     1.3882212
N           3.4937486     0.9584539     0.7609787
H           2.5715441     1.1614737     1.1284346
C           3.6460859     0.0377345    -0.2364231
C           4.9132171    -0.2179844    -0.6956906
H           5.0658421    -0.9490969    -1.4815729
C           6.0092481     0.4900615    -0.1289656
H           7.0111114     0.2847790    -0.4995528
O           4.2252753     2.5052504     2.2763579
18
315_C7H9NO_0-4-12-10 (0,) energy =    -402.1505364
C           1.1037970    -0.4250144    -0.0245443
H           1.1282432    -0.6925221     1.0383961
H           0.3034070    -1.0107671    -0.4866204
H           0.8230185     0.6312944    -0.1102415
C           2.4342547    -0.7242237    -0.7236454
H           2.3378552    -0.4996302    -1.7936330
H           2.6385404    -1.8009870    -0.6651034
C           5.8285947     1.4388710     0.8667205
H           6.6525492     1.9992090     1.2935261
C           4.5247037     1.6492539     1.4582533
N           3.5070845     0.8793311     0.8406896
H           2.5932247     1.0251545     1.2534019
C           3.6563679     0.0101845    -0.2016130
C           4.9107027    -0.1581855    -0.7319020
H           5.0598032    -0.8414530    -1.5604829
C           5.9979070     0.5727733    -0.1786029
H           6.9897876     0.4347573    -0.6033132
O           4.2337538     2.3912741     2.3928920
18
315_C7H9NO_0-4-12-10 (15,) energy =    -402.1508166
C           1.0889439    -0.3478485    -0.1110089
H           1.0107598    -0.4896962     0.9735601
H           0.2898114    -0.9409351    -0.5660045
H           0.8892174     0.7056952    -0.3370652
C           2.4475221    -0.8024657    -0.6573403
H           2.4359390    -0.7611878    -1.7526384
H           2.5957389    -1.8609798    -0.4015283
C           5.8300326     1.4391828     0.8428975
H           6.6530872     2.0129936     1.2532639
C           4.5506770     1.5719658     1.5071650
N           3.5323826     0.7905473     0.9063214
H           2.6349980     0.8857512     1.3671212
C           3.6609822    -0.0270602    -0.1802972
C           4.8898913    -0.1165532    -0.7833895
H           5.0205773    -0.7517851    -1.6522029
C           5.9771644     0.6294766    -0.2494824
H           6.9496673     0.5518866    -0.7305429
O           4.2811810     2.2622224     2.4867048
18
315_C7H9NO_0-4-12-10 (30,) energy =    -402.1515235
C           1.0729652    -0.2864311    -0.2165860
H           0.9134892    -0.2517301     0.8676634
H           0.2725726    -0.9068229    -0.6316188
H           0.9529915     0.7279690    -0.6121390
C           2.4383671    -0.8818144    -0.5879292
H           2.4974610    -1.0243981    -1.6721291
H           2.5162464    -1.8868234    -0.1474157
C           5.8260885     1.4262587     0.7849300
H           6.6521550     2.0138214     1.1690305
C           4.5867731     1.4816447     1.5330709
N           3.5605370     0.6894298     0.9628195
H           2.6908564     0.7313650     1.4811625
C           3.6501260    -0.0788151    -0.1646647
C           4.8392106    -0.0934948    -0.8470621
H           4.9359260    -0.6849487    -1.7502557
C           5.9326085     0.6702730    -0.3489335
H           6.8742703     0.6508537    -0.8930322
O           4.3585579     2.1198417     2.5570998
18
315_C7H9NO_0-4-12-10 (45,) energy =    -402.1524183
C           1.0862094    -0.2255190    -0.3321794
H           0.8711576     0.0217100     0.7137832
H           0.2774004    -0.8770186    -0.6780720
H           1.0477629     0.7027883    -0.9118027
C           2.4395338    -0.9349354    -0.5010396
H           2.5649955    -1.2515146    -1.5413507
H           2.4342233    -1.8560763     0.1008614
C           5.8143536     1.4434171     0.7657365
H           6.6371264     2.0495453     1.1274752
C           4.6229071     1.4087997     1.5911790
N           3.5978947     0.5980102     1.0481505
H           2.7625682     0.5736629     1.6217656
C           3.6486253    -0.1130325    -0.1204443
C           4.7917973    -0.0452661    -0.8725936
H           4.8569171    -0.5916526    -1.8062298
C           5.8820056     0.7450521    -0.4065256
H           6.7877829     0.7918478    -1.0069091
O           4.4368110     1.9886549     2.6573126
18
315_C7H9NO_0-4-12-10 (60,) energy =    -402.1531305
C           1.1177931    -0.1741950    -0.4561451
H           0.8822044     0.2936875     0.5063397
H           0.2825920    -0.8334784    -0.7139883
H           1.1724953     0.6200476    -1.2078659
C           2.4314824    -0.9747545    -0.4046508
H           2.6078265    -1.4577105    -1.3709571
H           2.3332116    -1.7836673     0.3339727
C           5.7980987     1.4642988     0.7490954
H           6.6179861     2.0886064     1.0856515
C           4.6689934     1.3367089     1.6509119
N           3.6440560     0.5078192     1.1378118
H           2.8532642     0.4112758     1.7654374
C           3.6446235    -0.1446985    -0.0668427
C           4.7312933     0.0043671    -0.8867301
H           4.7559723    -0.4980241    -1.8465671
C           5.8160183     0.8236520    -0.4570411
H           6.6769684     0.9371961    -1.1119557
O           4.5362553     1.8554184     2.7556404
18
315_C7H9NO_0-4-12-10 (75,) energy =    -402.1532348
C           1.1499152    -0.1571424    -0.5953645
H           0.8939222     0.4782013     0.2598684
H           0.2913893    -0.8050379    -0.8012214
H           1.3038727     0.4950180    -1.4611190
C           2.4071486    -1.0029931    -0.3182381
H           2.6219988    -1.6347296    -1.1862880
H           2.2159911    -1.6826399     0.5237501
C           5.7859975     1.4641449     0.7245145
H           6.6090175     2.0976352     1.0352404
C           4.7295968     1.2540130     1.6963060
N           3.6974006     0.4153249     1.2146610
H           2.9564961     0.2581752     1.8896681
C           3.6294061    -0.1721085    -0.0212449
C           4.6509033     0.0501867    -0.9058454
H           4.6231691    -0.4055376    -1.8887380
C           5.7372130     0.8848325    -0.5116505
H           6.5462966     1.0585419    -1.2175120
O           4.6616996     1.7119628     2.8332767
18
315_C7H9NO_0-4-12-10 (90,) energy =    -402.1527309
C           1.1830606    -0.1693737    -0.7358911
H           0.8954177     0.5991939    -0.0100342
H           0.3136852    -0.8117377    -0.9124807
H           1.4343973     0.3343302    -1.6746842
C           2.3743519    -1.0030806    -0.2272069
H           2.6265729    -1.7665896    -0.9711927
H           2.0893420    -1.5407793     0.6865913
C           5.7774855     1.4659951     0.7324404
H           6.6086513     2.0987128     1.0223198
C           4.7922408     1.1831236     1.7580706
N           3.7450776     0.3489163     1.2993534
H           3.0526399     0.1414875     2.0112167
C           3.6037177    -0.1705608     0.0404417
C           4.5620907     0.1171663    -0.8955308
H           4.4788889    -0.2879754    -1.8974894
C           5.6565968     0.9517800    -0.5279477
H           6.4149167     1.1786216    -1.2739791
O           4.7901781     1.5778021     2.9206196
18
315_C7H9NO_0-4-12-10 (105,) energy =    -402.1520677
C           1.2220434    -0.2009914    -0.8664183
H           0.9103188     0.6758386    -0.2886889
H           0.3462976    -0.8425249    -1.0124113
H           1.5575618     0.1471263    -1.8484326
C           2.3405708    -0.9738580    -0.1444780
H           2.6177258    -1.8503457    -0.7420002
H           1.9677646    -1.3589720     0.8129937
C           5.7935924     1.4624045     0.7342824
H           6.6416133     2.0816299     1.0036931
C           4.8772984     1.1189083     1.8032710
N           3.8027682     0.3065383     1.3666829
H           3.1564894     0.0602174     2.1087309
C           3.5779596    -0.1402278     0.0931178
C           4.4736678     0.2047465    -0.8856008
H           4.3259042    -0.1435339    -1.9014815
C           5.5896786     1.0200087    -0.5430293
H           6.2974686     1.2918571    -1.3229247
O           4.9477128     1.4485736     2.9839505
18
315_C7H9NO_0-4-12-10 (120,) energy =    -402.1516111
C           1.2560030    -0.2594479    -0.9935430
H           0.9280260     0.7025996    -0.5860181
H           0.3769590    -0.9041332    -1.0997990
H           1.6634944    -0.0782647    -1.9931049
C           2.2979274    -0.9225751    -0.0778588
H           2.5890047    -1.8921586    -0.5019788
H           1.8434794    -1.1402995     0.8966639
C           5.8112524     1.4582985     0.7236586
H           6.6803175     2.0547330     0.9768763
C           4.9559230     1.0614703     1.8236398
N           3.8470751     0.2861149     1.4052799
H           3.2426318     0.0041516     2.1694624
C           3.5425572    -0.0871823     0.1249053
C           4.3821227     0.3084255    -0.8844300
H           4.1736801     0.0220892    -1.9086978
C           5.5262015     1.0921294    -0.5623297
H           6.1890459     1.4034343    -1.3665989
O           5.0983957     1.3219591     3.0151146
18
315_C7H9NO_0-4-12-10 (135,) energy =    -402.1515331
C           1.2960962    -0.3330415    -1.0924587
H           0.9765023     0.6902532    -0.8701970
H           0.4045287    -0.9663131    -1.1495866
H           1.7647525    -0.3315994    -2.0815458
C           2.2518969    -0.8602356    -0.0131798
H           2.5346368    -1.8955988    -0.2486152
H           1.7214655    -0.9038588     0.9467475
C           5.8370593     1.4312631     0.7347899
H           6.7286627     1.9974952     0.9788548
C           5.0340070     0.9745569     1.8511110
N           3.8896162     0.2474137     1.4438587
H           3.3196960    -0.0729460     2.2193879
C           3.5100145    -0.0372321     0.1600507
C           4.2996175     0.4159810    -0.8648390
H           4.0327952     0.2058601    -1.8932668
C           5.4752190     1.1578339    -0.5544898
H           6.0978268     1.5141934    -1.3721374
O           5.2440314     1.1544906     3.0474230
18
315_C7H9NO_0-4-12-10 (150,) energy =    -402.1518615
C           1.3456457    -0.4212662    -1.1932808
H           1.0727507     0.6389019    -1.1856339
H           0.4241922    -1.0123250    -1.2025425
H           1.8767874    -0.6277809    -2.1279959
C           2.1903202    -0.7844298     0.0329097
H           2.4445190    -1.8538789     0.0011396
H           1.5832581    -0.6487746     0.9382659
C           5.8379748     1.4107545     0.7608251
H           6.7483275     1.9470772     1.0033148
C           5.0757376     0.8893462     1.8783954
N           3.9015616     0.2118494     1.4737312
H           3.3604995    -0.1530618     2.2503958
C           3.4654872     0.0141485     0.1901073
C           4.2164834     0.5263480    -0.8348332
H           3.9030206     0.3948669    -1.8624956
C           5.4165262     1.2308204    -0.5260227
H           6.0080800     1.6349050    -1.3445180
O           5.3425234     0.9834789     3.0731530
18
315_C7H9NO_0-4-12-10 (165,) energy =    -402.1523598
C           1.4036213    -0.5094505    -1.2437991
H           1.1792019     0.5462153    -1.4281275
H           0.4582234    -1.0607925    -1.2305345
H           1.9925435    -0.8848299    -2.0871711
C           2.1382701    -0.6973870     0.0858494
H           2.3405403    -1.7665959     0.2471864
H           1.4764242    -0.3930247     0.9091836
C           5.8567938     1.3876302     0.7664570
H           6.7861847     1.8948791     0.9991814
C           5.1407385     0.8009738     1.8832161
N           3.9396805     0.1652256     1.4929618
H           3.4298108    -0.2440428     2.2688339
C           3.4379532     0.0627554     0.2211663
C           4.1455877     0.6335590    -0.8025438
H           3.7796860     0.5783041    -1.8194115
C           5.3709094     1.3009981    -0.5066284
H           5.9281071     1.7523794    -1.3244983
O           5.4675155     0.8128827     3.0665689
18
315_C7H9NO_0-4-12-10 (180,) energy =    -402.1525874
C           1.4593323    -0.6074401    -1.2861419
H           1.2636709     0.4093888    -1.6423159
H           0.5064812    -1.1454715    -1.2689047
H           2.1113951    -1.1038398    -2.0124264
C           2.0817056    -0.6003512     0.1114323
H           2.2171206    -1.6360550     0.4560891
H           1.3786324    -0.1410753     0.8217791
C           5.8700345     1.3667593     0.7508384
H           6.8178620     1.8431440     0.9742388
C           5.1943985     0.7166139     1.8580083
N           3.9683803     0.1226277     1.4812442
H           3.4891125    -0.3354683     2.2493849
C           3.4079412     0.1145733     0.2295753
C           4.0799574     0.7399724    -0.7857430
H           3.6700748     0.7546568    -1.7870025
C           5.3282046     1.3700789    -0.5021990
H           5.8570965     1.8653158    -1.3134529
O           5.5750597     0.6441451     3.0229236
