17
363_C7H7NO2_0-4-10-8 (-165,) energy =    -476.1671377
C           2.1967154    -2.3287488    -1.2803860
H           2.8688299    -3.1026292    -0.8914556
H           2.4923191    -2.1274162    -2.3161945
H           1.1697678    -2.6970353    -1.2626470
C           2.2817981    -1.0866269    -0.4200607
C           5.9108622     1.0921383     0.1809992
H           6.7980047     1.6788526     0.3922092
C           4.7646915     1.3262534     1.0548177
N           3.6566473     0.5278979     0.7225238
H           2.8084228     0.6614999     1.2678954
C           3.5924733    -0.3696635    -0.3059606
C           4.6878409    -0.5704764    -1.1044605
H           4.6584373    -1.2862288    -1.9160394
C           5.8654419     0.1922646    -0.8437014
H           6.7375039     0.0475206    -1.4764722
O           1.3339290    -0.6912466     0.2420379
O           4.7169677     2.1149820     1.9905609
17
363_C7H7NO2_0-4-10-8 (-150,) energy =    -476.1645702
C           2.2081638    -2.3722467    -1.1713758
H           2.7574871    -3.0924596    -0.5526887
H           2.6812636    -2.3663271    -2.1590660
H           1.1695639    -2.6943775    -1.2645514
C           2.2450622    -1.0176424    -0.4986289
C           5.9116412     1.0766608     0.1950066
H           6.8092014     1.6370026     0.4320639
C           4.7836168     1.2589327     1.1023576
N           3.6601266     0.4955657     0.7343485
H           2.8189814     0.6251494     1.2907194
C           3.5648462    -0.3167268    -0.3608918
C           4.6465590    -0.4746713    -1.1868297
H           4.5945489    -1.1257184    -2.0501248
C           5.8362629     0.2568100    -0.8931448
H           6.6948488     0.1512680    -1.5516417
O           1.2641149    -0.5419889     0.0518000
O           4.7570129     1.9789993     2.0927071
17
363_C7H7NO2_0-4-10-8 (-135,) energy =    -476.1608548
C           2.2233792    -2.4005071    -1.0825637
H           2.6360142    -3.0225470    -0.2779309
H           2.8517576    -2.5611941    -1.9646402
H           1.1988490    -2.7152909    -1.2903586
C           2.2231128    -0.9629402    -0.6119206
C           5.9192313     1.0432010     0.2053415
H           6.8243720     1.5773242     0.4719761
C           4.8046662     1.1661059     1.1364767
N           3.6671026     0.4404589     0.7265837
H           2.8344177     0.5618088     1.2962843
C           3.5502665    -0.2788011    -0.4301292
C           4.6227492    -0.3883599    -1.2745006
H           4.5522312    -0.9734877    -2.1830261
C           5.8216538     0.3108582    -0.9421222
H           6.6705683     0.2509725    -1.6187441
O           1.2107350    -0.4075854    -0.2182574
O           4.7913933     1.8086681     2.1790129
17
363_C7H7NO2_0-4-10-8 (-120,) energy =    -476.1566137
C           2.2354421    -2.4193917    -0.9279145
H           2.5927238    -2.9109494    -0.0136577
H           2.9298156    -2.6988310    -1.7278990
H           1.2284046    -2.7715596    -1.1605254
C           2.2110876    -0.9273234    -0.6816492
C           5.9161598     1.0267469     0.2556952
H           6.8241270     1.5414965     0.5491658
C           4.8143982     1.0787158     1.2052156
N           3.6686478     0.3836602     0.7550639
H           2.8517376     0.4726981     1.3518004
C           3.5389817    -0.2463027    -0.4514402
C           4.6024911    -0.2959832    -1.3106603
H           4.5219011    -0.8180329    -2.2567019
C           5.8039025     0.3798552    -0.9410322
H           6.6452116     0.3704469    -1.6297235
O           1.1791384    -0.3067007    -0.5007670
O           4.8072265     1.6397409     2.2939929
17
363_C7H7NO2_0-4-10-8 (-105,) energy =    -476.1529389
C           2.2009806    -2.4118989    -0.8100104
H           2.5153457    -2.7670619     0.1799829
H           2.9261376    -2.8105115    -1.5292820
H           1.1999599    -2.7849617    -1.0363088
C           2.1997565    -0.8996441    -0.8120892
C           5.9013373     1.0249859     0.2396600
H           6.8089742     1.5252939     0.5578379
C           4.8115331     0.9996194     1.2006390
N           3.6628288     0.3285040     0.7134082
H           2.8653655     0.3607524     1.3406672
C           3.5281280    -0.2233406    -0.5301782
C           4.5800514    -0.1983712    -1.4025104
H           4.4931624    -0.6554426    -2.3813240
C           5.7798803     0.4598494    -0.9972008
H           6.6141923     0.5041770    -1.6931350
O           1.1886463    -0.2333009    -0.9144037
O           4.8058304     1.4797097     2.3276827
17
363_C7H7NO2_0-4-10-8 (-90,) energy =    -476.1512118
C           2.1706929    -2.4135151    -0.6764744
H           2.4370656    -2.6441322     0.3626051
H           2.9029025    -2.9320618    -1.3081075
H           1.1651548    -2.7781249    -0.8964829
C           2.2443206    -0.9223060    -0.9218539
C           5.9122102     1.0183638     0.2380746
H           6.8130319     1.5158435     0.5791005
C           4.8398495     0.8948724     1.2090945
N           3.6996602     0.2302184     0.6902488
H           2.9260052     0.1763389     1.3448491
C           3.5646191    -0.2482161    -0.5837617
C           4.5941838    -0.1155052    -1.4717160
H           4.4991866    -0.4940606    -2.4825983
C           5.7848867     0.5383633    -1.0338317
H           6.6071971     0.6526753    -1.7360782
O           1.3159956    -0.2677597    -1.3490622
O           4.8361410     1.2918220     2.3682248
17
363_C7H7NO2_0-4-10-8 (-75,) energy =    -476.1520841
C           2.1178646    -2.4058575    -0.5407778
H           2.3095615    -2.5148105     0.5333600
H           2.8541457    -3.0368875    -1.0552974
H           1.1101306    -2.7508118    -0.7810712
C           2.2977451    -0.9746891    -1.0033900
C           5.9051267     1.0205546     0.2445938
H           6.7954337     1.5247118     0.6030292
C           4.8600061     0.7879334     1.2256737
N           3.7356965     0.1158715     0.6841238
H           2.9912355    -0.0354745     1.3567950
C           3.5957550    -0.2916512    -0.6148478
C           4.5905904    -0.0356276    -1.5160086
H           4.4766420    -0.3345803    -2.5508590
C           5.7677796     0.6259157    -1.0555984
H           6.5697280     0.8203864    -1.7637072
O           1.5000725    -0.4020498    -1.7170748
O           4.8668758     1.1047742     2.4094324
17
363_C7H7NO2_0-4-10-8 (-60,) energy =    -476.1546273
C           2.0787616    -2.3721498    -0.4446677
H           2.1226750    -2.3402139     0.6503364
H           2.8469572    -3.0862814    -0.7683881
H           1.0969986    -2.7243471    -0.7668481
C           2.3742162    -1.0292037    -1.0848728
C           5.8873183     1.0523528     0.2688428
H           6.7591323     1.5713464     0.6509149
C           4.8660110     0.7102388     1.2444827
N           3.7695267     0.0199393     0.6745639
H           3.0472884    -0.2182359     1.3458220
C           3.6320034    -0.3151840    -0.6469249
C           4.5973415     0.0561735    -1.5415031
H           4.4736560    -0.1754961    -2.5919482
C           5.7505705     0.7377269    -1.0532065
H           6.5329782     1.0140704    -1.7558069
O           1.7137771    -0.5817879    -2.0016791
O           4.8751788     0.9559604     2.4451694
17
363_C7H7NO2_0-4-10-8 (-45,) energy =    -476.1575242
C           2.0107253    -2.3140086    -0.3719035
H           1.7444487    -2.0927744     0.6696632
H           2.8447346    -3.0257218    -0.3440747
H           1.1506114    -2.7686831    -0.8662612
C           2.4242419    -1.0736124    -1.1438118
C           5.8847913     1.0539695     0.2605498
H           6.7474995     1.5802172     0.6533488
C           4.9136965     0.5943746     1.2406649
N           3.8266493    -0.0955719     0.6569791
H           3.1431137    -0.4186257     1.3324556
C           3.6539776    -0.3367479    -0.6821426
C           4.5731624     0.1416086    -1.5757988
H           4.4169963    -0.0205120    -2.6346178
C           5.7143613     0.8340634    -1.0766899
H           6.4594347     1.1951037    -1.7813524
O           1.8683456    -0.7339894    -2.1714598
O           4.9590485     0.7504331     2.4555840
17
363_C7H7NO2_0-4-10-8 (-30,) energy =    -476.1601599
C           1.9444324    -2.2434688    -0.3009044
H           1.4648454    -1.8369736     0.6000135
H           2.7487556    -2.9118113     0.0280770
H           1.1966649    -2.8076122    -0.8605086
C           2.4889861    -1.1419566    -1.1941206
C           5.8819042     1.0611677     0.2479494
H           6.7295292     1.6045491     0.6502665
C           4.9616331     0.4969421     1.2237181
N           3.8896305    -0.2036165     0.6284749
H           3.2437596    -0.6024126     1.3001808
C           3.6897691    -0.3742432    -0.7186959
C           4.5663316     0.1922292    -1.6045651
H           4.3881591     0.0757505    -2.6657805
C           5.6861514     0.9106128    -1.0954733
H           6.3943673     1.3464270    -1.7957802
O           2.0323270    -0.9275142    -2.3025966
O           5.0401881     0.5792114     2.4441892
17
363_C7H7NO2_0-4-10-8 (-15,) energy =    -476.1619146
C           1.8716194    -2.1993561    -0.2722549
H           1.3609753    -1.6505981     0.5305701
H           2.6014274    -2.8713554     0.1955079
H           1.1295492    -2.7869038    -0.8147110
C           2.5458849    -1.2518040    -1.2490787
C           5.8540472     1.0679808     0.2056406
H           6.6800138     1.6416214     0.6110394
C           4.9978654     0.4050357     1.1783009
N           3.9495288    -0.3265134     0.5807605
H           3.3472962    -0.7906466     1.2506367
C           3.7124367    -0.4390689    -0.7672844
C           4.5348509     0.2111226    -1.6482963
H           4.3323381     0.1269124    -2.7081347
C           5.6262284     0.9700267    -1.1376234
H           6.2861707     1.4790872    -1.8356316
O           2.1895406    -1.1713911    -2.4116647
O           5.1114418     0.4339455     2.3985325
17
363_C7H7NO2_0-4-10-8 (0,) energy =    -476.1625215
C           1.8131792    -2.1137215    -0.2543579
H           1.3234786    -1.4390691     0.4597061
H           2.4385732    -2.8105245     0.3185702
H           1.0490731    -2.6801732    -0.7884008
C           2.6374043    -1.3392934    -1.2676525
C           5.8340929     1.1090096     0.2265305
H           6.6317569     1.7155098     0.6407337
C           5.0353972     0.3599502     1.1856325
N           4.0181798    -0.4050759     0.5771118
H           3.4583947    -0.9308089     1.2380349
C           3.7604209    -0.4766537    -0.7702295
C           4.5362239     0.2443150    -1.6386464
H           4.3249597     0.1817689    -2.6982677
C           5.5890769     1.0476313    -1.1158441
H           6.2058489     1.6203630    -1.8038750
O           2.4061383    -1.4049236    -2.4626184
O           5.1724698     0.3454846     2.4037333
17
363_C7H7NO2_0-4-10-8 (15,) energy =    -476.1619145
C           1.7406106    -2.0383936    -0.2555070
H           1.2855705    -1.2545242     0.3621420
H           2.2486739    -2.7412948     0.4184501
H           0.9601365    -2.5787895    -0.7930738
C           2.7050062    -1.4473217    -1.2690433
C           5.7966298     1.1384128     0.2129087
H           6.5673633     1.7798358     0.6254323
C           5.0708017     0.3152470     1.1690478
N           4.0808676    -0.4880106     0.5640537
H           3.5709765    -1.0657553     1.2221309
C           3.7869936    -0.5305303    -0.7768126
C           4.5025383     0.2509664    -1.6443246
H           4.2723483     0.2010997    -2.7006827
C           5.5193329     1.1014432    -1.1241077
H           6.0821452     1.7299510    -1.8097480
O           2.5924949    -1.6666811    -2.4624682
O           5.2448223     0.2697929     2.3816288
17
363_C7H7NO2_0-4-10-8 (30,) energy =    -476.1601599
C           1.5368263    -1.4197313    -1.1434759
H           1.7350198    -0.8634600    -2.0671251
H           0.9372696    -0.7708767    -0.4904717
H           0.9525417    -2.3141581    -1.3652485
C           2.8355600    -1.8419362    -0.4780913
C           5.8174502     1.1915817     0.1146281
H           6.5407779     1.9860801     0.2600918
C           4.4189843     1.5934668     0.1021603
N           3.5366151     0.5097922    -0.1012123
H           2.5597173     0.7797797    -0.1136072
C           3.9011354    -0.8010654    -0.2820567
C           5.2264807    -1.1412825    -0.2404718
H           5.5050735    -2.1805713    -0.3577571
C           6.1922156    -0.1116027    -0.0497856
H           7.2467594    -0.3754844    -0.0343720
O           3.0590715    -3.0016727    -0.1809442
O           3.9769175     2.7275585     0.2467350
17
363_C7H7NO2_0-4-10-8 (45,) energy =    -476.1575242
C           1.5898438    -1.4634513    -1.2419099
H           1.9257247    -1.1687507    -2.2435172
H           1.0157857    -0.6204114    -0.8363857
H           0.9356984    -2.3342468    -1.3106358
C           2.7919560    -1.8163024    -0.3840967
C           5.8110406     1.2031664     0.1080184
H           6.5430306     1.9935044     0.2306953
C           4.4159019     1.6002739     0.2118060
N           3.5211836     0.5217669     0.0255570
H           2.5457321     0.7884765     0.0977611
C           3.8730436    -0.7791253    -0.2295952
C           5.1972692    -1.1190812    -0.2861942
H           5.4723863    -2.1525243    -0.4537488
C           6.1730197    -0.0923730    -0.1289706
H           7.2261595    -0.3537244    -0.1969835
O           2.9558138    -2.9308320     0.0756848
O           3.9820644     2.7244432     0.4364567
17
363_C7H7NO2_0-4-10-8 (60,) energy =    -476.1546273
C           1.6503679    -1.5064150    -1.3301951
H           2.0888253    -1.5543348    -2.3353627
H           1.2147680    -0.5057124    -1.2261308
H           0.8687706    -2.2630140    -1.2387341
C           2.7457659    -1.7796461    -0.3172251
C           5.8086645     1.2114557     0.1061759
H           6.5494188     1.9952291     0.2174203
C           4.4267849     1.5978098     0.3366592
N           3.5184100     0.5274730     0.1554606
H           2.5510667     0.7844850     0.3201864
C           3.8495206    -0.7544334    -0.1975754
C           5.1642101    -1.0888751    -0.3701848
H           5.4311114    -2.1096508    -0.6134633
C           6.1494881    -0.0680102    -0.2289504
H           7.1944751    -0.3221582    -0.3889053
O           2.8250219    -2.8266749     0.2946113
O           4.0095288     2.7050376     0.6561207
17
363_C7H7NO2_0-4-10-8 (75,) energy =    -476.1520841
C           1.7090209    -1.5796228    -1.3859060
H           2.2426091    -1.8011316    -2.3193174
H           1.3379613    -0.5516102    -1.4747598
H           0.8739439    -2.2734050    -1.2693944
C           2.6731908    -1.7330057    -0.2276925
C           5.8196427     1.1934594     0.0678117
H           6.5789745     1.9622296     0.1555904
C           4.4639422     1.5882996     0.4070533
N           3.5290342     0.5335904     0.2568834
H           2.5811108     0.7933041     0.5090827
C           3.8170128    -0.7384617    -0.1577700
C           5.1079736    -1.0806980    -0.4469597
H           5.3465703    -2.0918962    -0.7532644
C           6.1157662    -0.0769222    -0.3365964
H           7.1431783    -0.3379540    -0.5787638
O           2.6088968    -2.6420459     0.5742149
O           4.0830872     2.6884585     0.7895715
17
363_C7H7NO2_0-4-10-8 (90,) energy =    -476.1512118
C           1.8072147    -1.6789249    -1.4278534
H           2.4379579    -1.9924449    -2.2691917
H           1.4577839    -0.6654193    -1.6613679
H           0.9564120    -2.3561521    -1.3281084
C           2.6177894    -1.6766278    -0.1502383
C           5.8271487     1.1904174     0.0621594
H           6.5995539     1.9473392     0.1378164
C           4.5016267     1.5783808     0.5100024
N           3.5474019     0.5380219     0.3754445
H           2.6266218     0.7813743     0.7260016
C           3.7975672    -0.7186405    -0.1025255
C           5.0567178    -1.0497571    -0.5160223
H           5.2652303    -2.0414871    -0.8996961
C           6.0817733    -0.0612303    -0.4204391
H           7.0879705    -0.3184205    -0.7426687
O           2.3595606    -2.3759245     0.8073770
O           4.1579494     2.6621656     0.9665789
17
363_C7H7NO2_0-4-10-8 (105,) energy =    -476.1529389
C           1.8907371    -1.7848584    -1.4513739
H           2.6064803    -2.1644318    -2.1901105
H           1.5469262    -0.8102759    -1.8215576
H           1.0426097    -2.4668195    -1.3617170
C           2.5440370    -1.5949991    -0.1007913
C           5.8207616     1.1879768     0.0730150
H           6.6098440     1.9278030     0.1462015
C           4.5283576     1.5719141     0.6153074
N           3.5506763     0.5552808     0.4814897
H           2.6604722     0.7748879     0.9170938
C           3.7559448    -0.6834022    -0.0595405
C           4.9792206    -1.0046075    -0.5777614
H           5.1460121    -1.9741839    -1.0323407
C           6.0277273    -0.0406695    -0.4851509
H           7.0103338    -0.2959358    -0.8746239
O           2.0822451    -2.0384897     0.9321122
O           4.2332118     2.6367602     1.1442105
17
363_C7H7NO2_0-4-10-8 (120,) energy =    -476.1566137
C           1.9666948    -1.8761891    -1.4835222
H           2.7453900    -2.3259842    -2.1092492
H           1.6311744    -0.9680230    -2.0010210
H           1.1256493    -2.5637235    -1.3730971
C           2.4833414    -1.4771582    -0.1192061
C           5.8260938     1.2089163     0.0694298
H           6.6325954     1.9286596     0.1532239
C           4.5627647     1.5872890     0.6850611
N           3.5606739     0.6019967     0.5317757
H           2.6932031     0.7931717     1.0240264
C           3.7197616    -0.6113311    -0.0780147
C           4.9141001    -0.9253152    -0.6668689
H           5.0432847    -1.8711693    -1.1794084
C           5.9872333     0.0096854    -0.5623187
H           6.9489244    -0.2429238    -1.0022325
O           1.8602615    -1.6826145     0.9066446
O           4.3183417     2.6276248     1.2835555
17
363_C7H7NO2_0-4-10-8 (135,) energy =    -476.1608548
C           2.0337434    -2.0170974    -1.4747194
H           2.8481164    -2.5537132    -1.9722954
H           1.7339495    -1.1994740    -2.1427381
H           1.1840537    -2.6851899    -1.3210678
C           2.4465934    -1.4142632    -0.1502392
C           5.8578480     1.1673662     0.0783796
H           6.6823354     1.8644170     0.1783826
C           4.6232466     1.5327959     0.7614576
N           3.5965885     0.5830935     0.5807348
H           2.7426363     0.7474119     1.1064857
C           3.7051747    -0.5915897    -0.1101339
C           4.8741247    -0.8960383    -0.7551558
H           4.9673854    -1.8120615    -1.3252167
C           5.9718444     0.0076038    -0.6318860
H           6.9123639    -0.2373481    -1.1192067
O           1.7166429    -1.4295647     0.8271246
O           4.4296946     2.5395759     1.4314394
17
363_C7H7NO2_0-4-10-8 (150,) energy =    -476.1645702
C           2.0732109    -2.0993764    -1.4504677
H           2.8841966    -2.7760670    -1.7399194
H           1.9204780    -1.4012014    -2.2826098
H           1.1587201    -2.6722497    -1.2871795
C           2.3901505    -1.3105725    -0.1989707
C           5.8709180     1.1591082     0.1107226
H           6.7138385     1.8298160     0.2349325
C           4.6618813     1.5050436     0.8506600
N           3.6114775     0.5940220     0.6336804
H           2.7603052     0.7438338     1.1693354
C           3.6696583    -0.5282848    -0.1444516
C           4.8168276    -0.8184432    -0.8351266
H           4.8761555    -1.6944909    -1.4682661
C           5.9383677     0.0507614    -0.6823290
H           6.8587628    -0.1796416    -1.2130988
O           1.5812289    -1.1824850     0.7069619
O           4.5143897     2.4693231     1.5912060
17
363_C7H7NO2_0-4-10-8 (165,) energy =    -476.1671377
C           2.1311872    -2.1960822    -1.4159437
H           2.9082393    -2.9676784    -1.4565260
H           2.1534934    -1.6568796    -2.3702274
H           1.1568343    -2.6706425    -1.2894553
C           2.3545209    -1.2332576    -0.2699254
C           5.8832014     1.1482819     0.1236841
H           6.7407574     1.7947498     0.2738186
C           4.6971264     1.4630354     0.9150344
N           3.6279538     0.5861461     0.6630739
H           2.7778288     0.7235703     1.2045228
C           3.6442486    -0.4739749    -0.1991267
C           4.7714927    -0.7391897    -0.9317508
H           4.7977694    -1.5675049    -1.6281912
C           5.9115745     0.0993636    -0.7485633
H           6.8142519    -0.1072319    -1.3180678
O           1.4875656    -1.0013441     0.5593878
O           4.5868551     2.3781383     1.7215160
17
363_C7H7NO2_0-4-10-8 (180,) energy =    -476.1680592
C           2.1671820    -2.2715130    -1.3591606
H           2.9037464    -3.0629672    -1.1789388
H           2.3277382    -1.8971494    -2.3767289
H           1.1617524    -2.6878872    -1.2808948
C           2.3101647    -1.1581402    -0.3439863
C           5.8876495     1.1266348     0.1554716
H           6.7602109     1.7443432     0.3370545
C           4.7204223     1.4054336     0.9879648
N           3.6326817     0.5655142     0.6958832
H           2.7814828     0.6994051     1.2367734
C           3.6092425    -0.4189144    -0.2514514
C           4.7208802    -0.6552340    -1.0171218
H           4.7191271    -1.4307292    -1.7724656
C           5.8798338     0.1470209    -0.7943446
H           6.7677823    -0.0318477    -1.3954761
O           1.3975172    -0.8421416     0.4049034
O           4.6415613     2.2631120     1.8587074
