21
439_C9H8FN3_4-5-17-18 (-165,) energy =    -611.8377065
C           5.9481569     0.9760365    -0.4281369
H           6.8348049     1.5995131    -0.4776739
C           5.9862127    -0.2841841     0.1591191
H           6.9053974    -0.6746925     0.5903291
N           4.9230119    -1.0900956     0.2289951
C           3.7529823    -0.6936732    -0.2711525
C           3.6171727     0.5857727    -0.8540841
F           2.4517650     1.0557848    -1.3130658
C           4.7271039     1.4123772    -0.9405629
H           4.6059088     2.3896118    -1.3969614
C           1.3254099    -3.2439718     0.3986973
H           0.8971422    -4.1231414     0.8590784
C           2.5732965    -2.7211073     0.6587967
C           3.5977811    -3.2206072     1.6284313
H           3.1647378    -4.0541100     2.1902796
H           3.9052705    -2.4455800     2.3372161
H           4.5056657    -3.5647470     1.1261162
N           2.6799607    -1.6025341    -0.1578946
N           1.5504512    -1.4030255    -0.9081243
C           0.7454928    -2.3951699    -0.5724518
H          -0.2280473    -2.4691191    -1.0403467
21
439_C9H8FN3_4-5-17-18 (-150,) energy =    -611.8387070
C           5.9697641     0.9375619    -0.4688323
H           6.8564732     1.5588742    -0.5416456
C           6.0523746    -0.3813111    -0.0317838
H           7.0070139    -0.8164614     0.2551474
N           4.9929300    -1.1926840     0.0526106
C           3.7873205    -0.7295314    -0.2748913
C           3.6067638     0.6065745    -0.6843902
F           2.3946810     1.1123402    -0.9390228
C           4.7100149     1.4382936    -0.7973636
H           4.5589515     2.4632082    -1.1208109
C           1.3412870    -3.2641659     0.3688229
H           0.8903937    -4.1239780     0.8439244
C           2.5609014    -2.7058952     0.6866168
C           3.5371530    -3.1109075     1.7453411
H           3.0798058    -3.8834824     2.3706013
H           3.8151507    -2.2687779     2.3882030
H           4.4637590    -3.5024568     1.3170877
N           2.7064020    -1.6299428    -0.1720128
N           1.6356251    -1.4860390    -1.0138199
C           0.8220227    -2.4752757    -0.6847748
H          -0.1132814    -2.5916981    -1.2174833
21
439_C9H8FN3_4-5-17-18 (-135,) energy =    -611.8388218
C           5.9699049     0.9144818    -0.5280018
H           6.8562095     1.5328790    -0.6275085
C           6.0764529    -0.4418222    -0.2283097
H           7.0490561    -0.9057130    -0.0813330
N           5.0190983    -1.2544052    -0.1191280
C           3.7988893    -0.7446301    -0.2756443
C           3.5984763     0.6198984    -0.5452705
F           2.3660751     1.1318685    -0.6396999
C           4.6943679     1.4567738    -0.6871225
H           4.5317292     2.5083314    -0.9004680
C           1.3531498    -3.2869478     0.3240899
H           0.8909544    -4.1414808     0.7978300
C           2.5312093    -2.6794613     0.7050031
C           3.4603017    -2.9991749     1.8327488
H           3.0076129    -3.7667899     2.4666772
H           3.6608107    -2.1193858     2.4551770
H           4.4256601    -3.3631596     1.4694312
N           2.7020853    -1.6280065    -0.1713894
N           1.6998930    -1.5494114    -1.1010910
C           0.8917334    -2.5517881    -0.7939953
H           0.0016058    -2.7160854    -1.3880017
21
439_C9H8FN3_4-5-17-18 (-120,) energy =    -611.8377075
C           5.9839428     0.8611595    -0.5926561
H           6.8703376     1.4762725    -0.7111761
C           6.0939533    -0.5199004    -0.4341375
H           7.0681008    -1.0032140    -0.4222076
N           5.0369086    -1.3307368    -0.3086520
C           3.8197901    -0.7906469    -0.3009232
C           3.6198736     0.5902512    -0.4354932
F           2.3848718     1.1037556    -0.3931793
C           4.7112360     1.4315300    -0.5920697
H           4.5509292     2.4994692    -0.6991087
C           1.3613557    -3.3223421     0.2827295
H           0.8837028    -4.1624747     0.7667981
C           2.4972670    -2.6668669     0.7107511
C           3.3710394    -2.8966091     1.9025367
H           2.9569541    -3.7057690     2.5099821
H           3.4396379    -2.0022561     2.5341986
H           4.3892695    -3.1660517     1.6049049
N           2.7059380    -1.6582235    -0.2018337
N           1.7819303    -1.6580908    -1.2110799
C           0.9702126    -2.6596117    -0.9052205
H           0.1286972    -2.8756881    -1.5512328
21
439_C9H8FN3_4-5-17-18 (-105,) energy =    -611.8357391
C           5.9552978     0.8641720    -0.6274723
H           6.8347895     1.4877240    -0.7543082
C           6.0629545    -0.5271506    -0.6462548
H           7.0285132    -1.0074306    -0.7864250
N           5.0134082    -1.3465080    -0.5152674
C           3.8111902    -0.8067775    -0.3271719
C           3.6153815     0.5782299    -0.2879346
F           2.3899407     1.0780801    -0.0872550
C           4.6967377     1.4342205    -0.4424721
H           4.5411096     2.5077282    -0.4123133
C           1.3527912    -3.3356084     0.2726414
H           0.8612058    -4.1528889     0.7812357
C           2.4486296    -2.6277628     0.7237471
C           3.2640804    -2.7545470     1.9709295
H           2.8779361    -3.5737754     2.5830227
H           3.2299977    -1.8388832     2.5746094
H           4.3153920    -2.9608218     1.7419577
N           2.6911979    -1.6736811    -0.2337484
N           1.8373863    -1.7617048    -1.2981796
C           1.0239442    -2.7586167    -0.9765520
H           0.2279206    -3.0338645    -1.6569226
21
439_C9H8FN3_4-5-17-18 (-90,) energy =    -611.8341074
C           5.9733843     0.8609070    -0.6344324
H           6.8367443     1.5104910    -0.7404605
C           6.0745706    -0.5044233    -0.9097023
H           7.0191584    -0.9366337    -1.2315455
N           5.0459210    -1.3528400    -0.8055774
C           3.8694778    -0.8705625    -0.4127750
C           3.6840185     0.4814197    -0.1094312
F           2.4850145     0.9175184     0.3002532
C           4.7447940     1.3703812    -0.2194510
H           4.5960404     2.4196617     0.0138156
C           1.3261611    -3.2990754     0.2815735
H           0.7763519    -4.0378010     0.8475410
C           2.4168893    -2.5722057     0.7178995
C           3.1525481    -2.5697711     2.0200851
H           2.7224137    -3.3191739     2.6895153
H           3.0900474    -1.5961879     2.5226149
H           4.2146768    -2.8048845     1.8838768
N           2.7658340    -1.7640432    -0.3336610
N           1.9698952    -1.9401223    -1.4277855
C           1.0992025    -2.8665795    -1.0448983
H           0.3348693    -3.1935529    -1.7385025
21
439_C9H8FN3_4-5-17-18 (-75,) energy =    -611.8345922
C           5.6417026     1.4153619    -0.4127163
H           6.3652749     2.1768928    -0.6864536
C           4.2719659     1.6673891    -0.5132919
H           3.9103892     2.6289565    -0.8702308
N           3.3332191     0.7689422    -0.1978012
C           3.7243684    -0.4197769     0.2543582
C           5.0763529    -0.7561018     0.3754233
F           5.4254558    -1.9803449     0.8057090
C           6.0581862     0.1645381     0.0388393
H           7.1052258    -0.1019180     0.1404335
C           1.4231265    -3.1270729     0.7285469
H           0.9135796    -4.0562484     0.5156197
C           2.3968382    -2.5270424    -0.0452570
C           3.0360100    -2.9468336    -1.3307019
H           2.5451304    -3.8463976    -1.7109614
H           4.0999496    -3.1760079    -1.1947130
H           2.9567957    -2.1686407    -2.0991537
N           2.7255396    -1.3660368     0.6093396
N           2.0337684    -1.1992965     1.7744091
C           1.2442648    -2.2644166     1.8344585
H           0.5723158    -2.3784148     2.6757050
21
439_C9H8FN3_4-5-17-18 (-60,) energy =    -611.8354431
C           5.6279759     1.4305830    -0.3991098
H           6.3426075     2.2025876    -0.6665589
C           4.2613787     1.7119502    -0.3455668
H           3.8924242     2.7105376    -0.5683522
N           3.3331641     0.8017831    -0.0364288
C           3.7305025    -0.4348461     0.2558348
C           5.0825472    -0.7957691     0.2405111
F           5.4519658    -2.0504766     0.5590628
C           6.0508045     0.1369037    -0.1002771
H           7.0964281    -0.1533073    -0.1084759
C           1.3861825    -3.1087915     0.7169840
H           0.8725221    -4.0374074     0.5115709
C           2.4244865    -2.5673870    -0.0135465
C           3.1044373    -3.0531192    -1.2544155
H           2.5891166    -3.9410374    -1.6297786
H           4.1499917    -3.3213854    -1.0685752
H           3.0892270    -2.2962162    -2.0480788
N           2.7378847    -1.3829076     0.6126890
N           1.9547277    -1.1394923     1.7048899
C           1.1439412    -2.1869967     1.7620686
H           0.4113411    -2.2469974     2.5570131
21
439_C9H8FN3_4-5-17-18 (-45,) energy =    -611.8351920
C           5.5993573     1.5070960    -0.3754123
H           6.2910287     2.2992731    -0.6438363
C           4.2450907     1.7784812    -0.1737283
H           3.8616503     2.7913640    -0.2748166
N           3.3443051     0.8440588     0.1415120
C           3.7540260    -0.4149574     0.2847574
C           5.1033691    -0.7640637     0.1417966
F           5.5079559    -2.0293913     0.3670152
C           6.0399606     0.1952799    -0.2109211
H           7.0811484    -0.0900841    -0.3211795
C           1.3886890    -3.0743509     0.7215364
H           0.8726585    -4.0013317     0.5143783
C           2.4871671    -2.5822637     0.0482842
C           3.2146299    -3.1347926    -1.1369952
H           2.6059802    -3.9143305    -1.6027911
H           4.1796135    -3.5729442    -0.8642466
H           3.4041739    -2.3627941    -1.8922186
N           2.7879764    -1.3811680     0.6594691
N           1.9153131    -1.0730872     1.6656553
C           1.0866671    -2.1051428     1.7067171
H           0.2957176    -2.1195697     2.4459474
21
439_C9H8FN3_4-5-17-18 (-30,) energy =    -611.8332824
C           5.6013590     1.4575872    -0.3991895
H           6.2900240     2.2531910    -0.6648139
C           4.2826609     1.7395038    -0.0412228
H           3.9245381     2.7661802    -0.0076631
N           3.3873591     0.8022385     0.2781878
C           3.7566725    -0.4773602     0.2547893
C           5.0840229    -0.8383881    -0.0218683
F           5.4877319    -2.1198859     0.0927849
C           6.0120418     0.1261218    -0.3811403
H           7.0314111    -0.1745476    -0.6007690
C           1.3150471    -3.0708174     0.6661632
H           0.7731530    -3.9811910     0.4511299
C           2.4699030    -2.6450889     0.0474613
C           3.2028953    -3.2702778    -1.0983621
H           2.5404478    -3.9871436    -1.5910318
H           4.1045858    -3.8017070    -0.7813960
H           3.5043410    -2.5266839    -1.8449674
N           2.7957942    -1.4403250     0.6535525
N           1.8600181    -1.0624875     1.5792913
C           0.9927475    -2.0596769     1.6017396
H           0.1576879    -2.0190882     2.2898329
21
439_C9H8FN3_4-5-17-18 (-15,) energy =    -611.8292408
C           5.5910867     1.4930862    -0.3920133
H           6.2688663     2.3001746    -0.6505477
C           4.3181289     1.7532040     0.1142268
H           3.9854335     2.7752157     0.2833316
N           3.4407121     0.8000231     0.4311459
C           3.7627971    -0.4793630     0.2425384
C           5.0651147    -0.8237623    -0.1585450
F           5.4839908    -2.1066345    -0.1591540
C           5.9733981     0.1595630    -0.5167678
H           6.9659946    -0.1362131    -0.8409905
C           1.2949788    -3.0565550     0.6402544
H           0.7541721    -3.9688752     0.4304805
C           2.4912099    -2.6768485     0.0762013
C           3.2418161    -3.3884896    -1.0073172
H           2.5697973    -4.1218149    -1.4615561
H           4.1229461    -3.9187088    -0.6370494
H           3.5745546    -2.7071929    -1.7975656
N           2.8100408    -1.4494300     0.6570187
N           1.8065984    -1.0150529     1.4876621
C           0.9271653    -1.9976103     1.5026695
H           0.0476086    -1.9105823     2.1283652
21
439_C9H8FN3_4-5-17-18 (0,) energy =    -611.8243424
C           5.6528124     1.5697903    -0.1875127
H           6.3758611     2.3725406    -0.2877193
C           4.4658367     1.7400817     0.5225497
H           4.2298517     2.6913604     0.9957673
N           3.5550038     0.7821902     0.6713167
C           3.7373413    -0.4262872     0.1359829
C           4.9067057    -0.6685355    -0.6068627
F           5.1640885    -1.8524883    -1.2034216
C           5.8637284     0.3229958    -0.7648876
H           6.7516174     0.0891818    -1.3435908
C           1.2428005    -3.0257151     0.5988822
H           0.7627438    -3.9924442     0.5367861
C           2.4602330    -2.6993251     0.0450810
C           3.3144661    -3.6573905    -0.7307547
H           2.7933692    -4.6185693    -0.7432007
H           4.2972224    -3.8130855    -0.2789501
H           3.4715556    -3.3456195    -1.7662253
N           2.6767017    -1.3579467     0.3734913
N           1.6321500    -0.8595899     1.1189697
C           0.7835745    -1.8578883     1.2443978
H          -0.1341664    -1.7045236     1.7984566
21
439_C9H8FN3_4-5-17-18 (15,) energy =    -611.8292409
C           5.7273298     1.3859218    -0.0732869
H           6.5344379     2.1110871    -0.0916975
C           4.6643704     1.5105120     0.8205635
H           4.6103350     2.3543829     1.5052137
N           3.6573737     0.6392697     0.8963457
C           3.6525200    -0.4308937     0.1020415
C           4.6296086    -0.5665491    -0.8991498
F           4.5360235    -1.5222339    -1.8473506
C           5.6942418     0.3179045    -0.9667106
H           6.4443829     0.1777883    -1.7383962
C           1.2263857    -3.0356641     0.5704389
H           0.8309975    -4.0403185     0.6264771
C           2.4579067    -2.6771365     0.0722793
C           3.5402310    -3.5979416    -0.4015930
H           3.3031674    -4.6079182    -0.0559744
H           4.5210334    -3.3285689     0.0044455
H           3.6304630    -3.6239318    -1.4905325
N           2.5220546    -1.2885075     0.1866293
N           1.4132085    -0.7887574     0.8239661
C           0.6292636    -1.8322621     1.0127399
H          -0.3414112    -1.6884223     1.4707623
21
439_C9H8FN3_4-5-17-18 (30,) energy =    -611.8332825
C           5.7333904     1.3432827    -0.0881901
H           6.5500090     2.0574906    -0.1173169
C           4.7623785     1.4038040     0.9118414
H           4.7985277     2.1795899     1.6736080
N           3.7462759     0.5433599     1.0080640
C           3.6422395    -0.4348182     0.1098644
C           4.5349622    -0.5191731    -0.9693572
F           4.3446015    -1.4227248    -1.9520813
C           5.6079485     0.3531137    -1.0606466
H           6.2930083     0.2654227    -1.8977513
C           1.2140057    -3.0370547     0.5443488
H           0.8210444    -4.0423826     0.6041076
C           2.4763303    -2.6793223     0.1247125
C           3.6181244    -3.5644427    -0.2676287
H           3.4253322    -4.5742012     0.1048228
H           4.5661507    -3.2246766     0.1645686
H           3.7528505    -3.6211016    -1.3515076
N           2.5200783    -1.2950937     0.2100114
N           1.3624150    -0.7765109     0.7260084
C           0.5749686    -1.8244699     0.8951314
H          -0.4302779    -1.6759569     1.2691037
21
439_C9H8FN3_4-5-17-18 (45,) energy =    -611.8351920
C           5.7390691     1.3051972    -0.1080761
H           6.5624282     2.0108019    -0.1550754
C           4.8639053     1.2991073     0.9792987
H           4.9884541     2.0078647     1.7949738
N           3.8441018     0.4451851     1.1008253
C           3.6367922    -0.4434183     0.1308484
C           4.4431977    -0.4757355    -1.0144409
F           4.1690659    -1.3315137    -2.0184439
C           5.5193248     0.3897813    -1.1356329
H           6.1373591     0.3516496    -2.0268298
C           1.2028682    -3.0482325     0.5200969
H           0.8097977    -4.0538909     0.5718124
C           2.4932531    -2.6901179     0.1900296
C           3.6769125    -3.5489550    -0.1271803
H           3.4667546    -4.5785432     0.1743063
H           4.5730235    -3.2191524     0.4117804
H           3.9156939    -3.5482626    -1.1951385
N           2.5249441    -1.3116048     0.2625519
N           1.3269871    -0.7807029     0.6522486
C           0.5330012    -1.8316769     0.7888282
H          -0.4995712    -1.6805868     1.0773212
21
439_C9H8FN3_4-5-17-18 (60,) energy =    -611.8354430
C           5.7444667     1.3265903    -0.1092072
H           6.5715552     2.0271294    -0.1674036
C           4.9775869     1.2238982     1.0531256
H           5.1960557     1.8468019     1.9175390
N           3.9568804     0.3724076     1.1897531
C           3.6388595    -0.4068131     0.1581592
C           4.3470824    -0.3555588    -1.0477601
F           3.9876053    -1.1446470    -2.0774681
C           5.4214133     0.5098155    -1.1909672
H           5.9630472     0.5422309    -2.1307573
C           1.2080631    -3.0264287     0.4550038
H           0.8195358    -4.0348133     0.4793975
C           2.5184952    -2.6575975     0.2279472
C           3.7398234    -3.4871531    -0.0132430
H           3.4910156    -4.5454186     0.1007902
H           4.5377731    -3.2515390     0.7014879
H           4.1406052    -3.3400436    -1.0219057
N           2.5340843    -1.2838503     0.3058502
N           1.3026866    -0.7556154     0.5704884
C           0.5083059    -1.8137132     0.6557294
H          -0.5457344    -1.6695762     0.8568260
21
439_C9H8FN3_4-5-17-18 (75,) energy =    -611.8345928
C           5.7679183     1.2199500    -0.1690094
H           6.6057016     1.9051346    -0.2530508
C           5.1102805     1.0469586     1.0505777
H           5.4299765     1.5938191     1.9346000
N           4.0777467     0.2140582     1.2184055
C           3.6414664    -0.4704246     0.1640508
C           4.2504723    -0.3627580    -1.0902008
F           3.7968937    -1.0981578    -2.1193778
C           5.3303365     0.4891689    -1.2718913
H           5.7942342     0.5712421    -2.2494780
C           1.2033624    -3.0809665     0.4657680
H           0.8181009    -4.0897793     0.5127366
C           2.5266710    -2.7118917     0.3260388
C           3.7712333    -3.5292338     0.1840942
H           3.5317847    -4.5896730     0.2977023
H           4.5191999    -3.2689460     0.9425213
H           4.2321734    -3.3921103    -0.8016441
N           2.5307296    -1.3391971     0.3390174
N           1.2794735    -0.8057318     0.4554057
C           0.4847148    -1.8654212     0.5379724
H          -0.5828177    -1.7194771     0.6442194
21
439_C9H8FN3_4-5-17-18 (90,) energy =    -611.8341074
C           5.7614849     1.1489363    -0.2240332
H           6.6028294     1.8326871    -0.2807861
C           5.2375502     0.7694213     1.0135520
H           5.6658491     1.1510404     1.9374376
N           4.1984747    -0.0619313     1.1475053
C           3.6419851    -0.5568473     0.0446234
C           4.1099061    -0.2351606    -1.2327924
F           3.5289953    -0.7731460    -2.3138827
C           5.1847908     0.6309075    -1.3817183
H           5.5429730     0.8806646    -2.3751230
C           1.1888876    -3.1236021     0.5359325
H           0.8028554    -4.1177996     0.7116602
C           2.5167567    -2.7688380     0.3970694
C           3.7723226    -3.5799852     0.4469011
H           3.5306380    -4.6228300     0.6678555
H           4.4564042    -3.2175007     1.2231655
H           4.3119800    -3.5561918    -0.5083559
N           2.5157971    -1.4142846     0.1828440
N           1.2627804    -0.8744479     0.1904128
C           0.4665678    -1.9162046     0.3997228
H          -0.6042214    -1.7630493     0.4460505
21
439_C9H8FN3_4-5-17-18 (105,) energy =    -611.8357390
C           5.7521165     1.1386355    -0.2380907
H           6.5865478     1.8326461    -0.2598583
C           5.3582439     0.5402052     0.9595986
H           5.8812656     0.7582896     1.8877760
N           4.3265322    -0.3065226     1.0524894
C           3.6627056    -0.6164683    -0.0589398
C           3.9958055    -0.0675906    -1.3023011
F           3.3068619    -0.4141198    -2.3964235
C           5.0525705     0.8263216    -1.4026900
H           5.3077870     1.2506765    -2.3682690
C           1.1929561    -3.1245839     0.5808751
H           0.7960820    -4.0890397     0.8647703
C           2.5261230    -2.7887690     0.4571570
C           3.7719524    -3.5886298     0.6683740
H           3.5111029    -4.6024785     0.9829716
H           4.4084318    -3.1410918     1.4396273
H           4.3677778    -3.6644393    -0.2499283
N           2.5400780    -1.4785788     0.0459409
N           1.2867421    -0.9415287    -0.0558910
C           0.4797198    -1.9470503     0.2549929
H          -0.5916342    -1.7913074     0.2389704
21
439_C9H8FN3_4-5-17-18 (120,) energy =    -611.8377081
C           5.7705986     1.1252946    -0.2353715
H           6.6117096     1.8111246    -0.2521826
C           5.4802243     0.3848837     0.9098944
H           6.0926804     0.4786131     1.8036330
N           4.4435041    -0.4568980     0.9964165
C           3.6685522    -0.6224196    -0.0734689
C           3.9000768     0.0687192    -1.2710791
F           3.1199792    -0.1425293    -2.3375307
C           4.9579522     0.9612808    -1.3569663
H           5.1315350     1.4955073    -2.2854670
C           1.1939606    -3.1199524     0.5852036
H           0.7900477    -4.0711205     0.9020975
C           2.5286579    -2.7761251     0.5225145
C           3.7586380    -3.5597619     0.8537457
H           3.4779363    -4.5741090     1.1496283
H           4.3183536    -3.0970312     1.6726020
H           4.4361419    -3.6347072    -0.0058433
N           2.5548128    -1.4889248     0.0370845
N           1.3029398    -0.9797586    -0.1789721
C           0.4893438    -1.9738894     0.1455470
H          -0.5805244    -1.8340261     0.0558085
21
439_C9H8FN3_4-5-17-18 (135,) energy =    -611.8388223
C           5.8478045     1.0761136    -0.2179016
H           6.7013034     1.7463451    -0.2318713
C           5.6262896     0.2235553     0.8612629
H           6.3083788     0.2083855     1.7081790
N           4.5771147    -0.6031320     0.9403848
C           3.7111868    -0.6408107    -0.0705761
C           3.8773007     0.1604577    -1.2130941
F           3.0348243     0.0690080    -2.2482594
C           4.9478876     1.0381417    -1.2832959
H           5.0663440     1.6567951    -2.1670212
C           1.2402401    -3.1528198     0.5557476
H           0.8334410    -4.0992404     0.8829946
C           2.5681792    -2.7811835     0.5820851
C           3.7731002    -3.5423923     1.0357574
H           3.4856821    -4.5742004     1.2566739
H           4.2173354    -3.0984275     1.9312446
H           4.5530222    -3.5642961     0.2657529
N           2.6046380    -1.5102528     0.0471784
N           1.3626061    -1.0497917    -0.2993455
C           0.5477150    -2.0468263     0.0076620
H          -0.5144050    -1.9380982    -0.1719666
21
439_C9H8FN3_4-5-17-18 (150,) energy =    -611.8387068
C           5.8792433     1.0520561    -0.2730761
H           6.7470857     1.7031240    -0.2962535
C           5.7251103     0.0986450     0.7291767
H           6.4756748    -0.0212997     1.5071786
N           4.6637089    -0.7101367     0.8136926
C           3.7046766    -0.6283144    -0.1075897
C           3.8021293     0.2782278    -1.1819329
F           2.8899215     0.3190474    -2.1596748
C           4.8899172     1.1345866    -1.2529137
H           4.9499591     1.8332614    -2.0812509
C           1.2631830    -3.1740968     0.5096784
H           0.8654115    -4.1195273     0.8506310
C           2.5737701    -2.7591190     0.6108343
C           3.7526630    -3.4862306     1.1761395
H           3.4566786    -4.5141655     1.4057668
H           4.1258325    -3.0115485     2.0875605
H           4.5890905    -3.5193589     0.4696944
N           2.6058139    -1.5014087     0.0334321
N           1.3770516    -1.1068256    -0.4252196
C           0.5753762    -2.1165164    -0.1309614
H          -0.4744583    -2.0516265    -0.3873751
21
439_C9H8FN3_4-5-17-18 (165,) energy =    -611.8377066
C           5.9071012     1.0400433    -0.3292665
H           6.7861275     1.6753834    -0.3605538
C           5.8176487    -0.0216388     0.5647610
H           6.6305438    -0.2466350     1.2517228
N           4.7493395    -0.8196007     0.6469175
C           3.7060657    -0.6205895    -0.1582158
C           3.7276722     0.4137135    -1.1200036
F           2.7343895     0.6159930    -1.9930552
C           4.8309112     1.2507442    -1.1902892
H           4.8279433     2.0438972    -1.9311486
C           1.2929184    -3.1934809     0.4767794
H           0.9007580    -4.1289391     0.8501842
C           2.5825660    -2.7356773     0.6363996
C           3.7220777    -3.4147221     1.3289887
H           3.3944092    -4.4126013     1.6368874
H           4.0545573    -2.8621759     2.2116867
H           4.5948294    -3.5206559     0.6773231
N           2.6178599    -1.5058095    -0.0083978
N           1.4091579    -1.1829308    -0.5680748
C           0.6187066    -2.1976943    -0.2673543
H          -0.4129078    -2.1811408    -0.5954872
21
439_C9H8FN3_4-5-17-18 (180,) energy =    -611.8370379
C           5.9333214     0.9982169    -0.3692296
H           6.8195674     1.6231659    -0.4044389
C           5.9056942    -0.1746048     0.3770275
H           6.7742246    -0.4977459     0.9468486
N           4.8357586    -0.9707426     0.4464819
C           3.7226901    -0.6596478    -0.2171475
C           3.6643056     0.5157882    -1.0012912
F           2.5800955     0.8861578    -1.6917779
C           4.7778985     1.3394430    -1.0703029
H           4.7124963     2.2367613    -1.6773798
C           1.3056277    -3.2256170     0.4430983
H           0.8987572    -4.1342509     0.8639990
C           2.5764142    -2.7368946     0.6525160
C           3.6573219    -3.3415015     1.4928542
H           3.2728823    -4.2681001     1.9309770
H           3.9734401    -2.6748217     2.2999876
H           4.5526944    -3.5725204     0.9092086
N           2.6432847    -1.5591078    -0.0849703
N           1.4682208    -1.2987499    -0.7416045
C           0.6726402    -2.3022700    -0.4201639
H          -0.3330938    -2.3297563    -0.8200857
