22
096_C10H10N2_17-0-9-10 (-165,) energy =    -496.5856724
C           2.8810095    -1.8565405    -0.9728230
H           3.3626297    -2.6628643    -1.5443445
H           2.4695377    -2.3278636    -0.0724904
C           5.9110135     0.9861793     0.2853418
H           6.6721737     1.6892535     0.6127677
C           4.6581998     1.4444360    -0.1213363
H           4.4360677     2.5084337    -0.1074850
C           3.6793025     0.5414832    -0.5435943
H           2.7022006     0.9095098    -0.8431668
C           3.9398680    -0.8335400    -0.5717881
C           5.2001590    -1.2831070    -0.1527215
H           5.4167675    -2.3496443    -0.1620570
C           6.1784228    -0.3847394     0.2708963
H           7.1499441    -0.7547818     0.5883914
C          -0.2860537    -0.7636552    -2.3314310
H          -1.3580882    -0.6449581    -2.2501820
N           0.4502132    -1.3271477    -1.3116501
C           1.7017360    -1.3256653    -1.7294093
N           1.7960882    -0.7815593    -2.9855951
H           2.6482776    -0.6400554    -3.5088281
C           0.5251605    -0.4137514    -3.3803256
H           0.3306629     0.0433823    -4.3389615
22
096_C10H10N2_17-0-9-10 (-150,) energy =    -496.5865988
C           2.7766191    -1.8030308    -0.8248055
H           3.2191688    -2.6996522    -1.2811292
H           2.3000267    -2.1387593     0.1039943
C           5.9437426     0.9832501     0.1889207
H           6.7377353     1.6757685     0.4551986
C           4.6440724     1.4489511    -0.0179301
H           4.4210086     2.5071937     0.0912810
C           3.6240294     0.5606515    -0.3619671
H           2.6130804     0.9301227    -0.5123817
C           3.8865819    -0.8081261    -0.5091191
C           5.1936480    -1.2642209    -0.2942697
H           5.4129761    -2.3246885    -0.4011976
C           6.2154292    -0.3789163     0.0514911
H           7.2233306    -0.7536033     0.2104612
C          -0.2623431    -0.7447198    -2.4748297
H          -1.3382632    -0.6350130    -2.4938003
N           0.3821703    -1.2914939    -1.3857938
C           1.6667915    -1.2800897    -1.6870946
N           1.8715633    -0.7467156    -2.9340382
H           2.7686896    -0.5904841    -3.3708254
C           0.6390852    -0.3952204    -3.4473623
H           0.5300253     0.0566306    -4.4219027
22
096_C10H10N2_17-0-9-10 (-135,) energy =    -496.5872020
C           2.6827257    -1.7543343    -0.6737912
H           3.0900730    -2.7140327    -1.0213707
H           2.1546403    -1.9685801     0.2626810
C           5.9581793     0.9791589     0.1026795
H           6.7786759     1.6621111     0.3058518
C           4.6403385     1.4435079     0.1016094
H           4.4319388     2.4902763     0.3073073
C           3.5872163     0.5681001    -0.1607307
H           2.5635893     0.9347094    -0.1584494
C           3.8313373    -0.7874683    -0.4268157
C           5.1556708    -1.2410277    -0.4218194
H           5.3611297    -2.2902104    -0.6239944
C           6.2130387    -0.3669807    -0.1590158
H           7.2342000    -0.7393649    -0.1612065
C          -0.2231474    -0.7824704    -2.5962469
H          -1.2953575    -0.6968560    -2.7109321
N           0.3346686    -1.2988483    -1.4461631
C           1.6401715    -1.2602999    -1.6343516
N           1.9426811    -0.7391885    -2.8657232
H           2.8720076    -0.5623230    -3.2194735
C           0.7526245    -0.4238178    -3.4906438
H           0.7198359     0.0143246    -4.4768928
22
096_C10H10N2_17-0-9-10 (-120,) energy =    -496.5874595
C           2.6214456    -1.6927107    -0.5600902
H           3.0035369    -2.6920888    -0.8104823
H           2.0431190    -1.8048009     0.3633481
C           5.9628229     1.0010898     0.0460481
H           6.7989976     1.6775612     0.2012045
C           4.6528013     1.4446831     0.2502863
H           4.4678365     2.4680935     0.5662475
C           3.5798095     0.5779107     0.0519761
H           2.5620454     0.9280719     0.2076452
C           3.7949696    -0.7489235    -0.3506932
C           5.1103654    -1.1812707    -0.5530846
H           5.2933179    -2.2089683    -0.8604137
C           6.1891125    -0.3143823    -0.3565493
H           7.2035613    -0.6702329    -0.5168661
C          -0.1390443    -0.7632715    -2.7062726
H          -1.1996233    -0.6511129    -2.8871752
N           0.3350731    -1.2197800    -1.4948179
C           1.6492778    -1.2362836    -1.6106672
N           2.0382495    -0.8088255    -2.8532928
H           2.9918937    -0.6841485    -3.1618792
C           0.8967801    -0.4967729    -3.5645877
H           0.9344006    -0.1231740    -4.5768821
22
096_C10H10N2_17-0-9-10 (-105,) energy =    -496.5874789
C           2.5158695    -1.6190644    -0.4283751
H           2.8525490    -2.6567585    -0.5622072
H           1.9039503    -1.6082951     0.4793407
C           5.9604959     0.9818655    -0.0510156
H           6.8220133     1.6375565     0.0415050
C           4.6968076     1.4225929     0.3526403
H           4.5734076     2.4224886     0.7603282
C           3.5910438     0.5821095     0.2363659
H           2.6089088     0.9307896     0.5471428
C           3.7270283    -0.7154586    -0.2792346
C           4.9978265    -1.1451211    -0.6807814
H           5.1207334    -2.1527691    -1.0728227
C           6.1089441    -0.3043619    -0.5687212
H           7.0879403    -0.6585323    -0.8809392
C          -0.1020817    -0.9141219    -2.8253432
H          -1.1467442    -0.8931763    -3.1055451
N           0.2936460    -1.3300523    -1.5720463
C           1.6092137    -1.2310247    -1.5647583
N           2.0750359    -0.7689666    -2.7669572
H           3.0403437    -0.5635368    -2.9824513
C           0.9827740    -0.5565480    -3.5844607
H           1.0826136    -0.1750983    -4.5894989
22
096_C10H10N2_17-0-9-10 (-90,) energy =    -496.5872904
C           2.4424975    -1.5276207    -0.3410231
H           2.7336945    -2.5875095    -0.3565645
H           1.7975467    -1.3995951     0.5338049
C           5.9742830     0.9701089    -0.1053521
H           6.8577830     1.6005045    -0.0529453
C           4.7756229     1.3904408     0.4761610
H           4.7236954     2.3506185     0.9826908
C           3.6420226     0.5805279     0.4104781
H           2.7106012     0.9151538     0.8611723
C           3.6860683    -0.6659336    -0.2292942
C           4.8949009    -1.0773910    -0.8079707
H           4.9510504    -2.0500418    -1.2932805
C           6.0314509    -0.2668250    -0.7481876
H           6.9613644    -0.6068064    -1.1965705
C          -0.0220316    -1.0654484    -2.9510947
H          -1.0404954    -1.1297788    -3.3103041
N           0.3054077    -1.4284424    -1.6623031
C           1.6049164    -1.2266966    -1.5572778
N           2.1263958    -0.7503557    -2.7299240
H           3.0880923    -0.4765159    -2.8741657
C           1.0881169    -0.6373355    -3.6333001
H           1.2371239    -0.2677404    -4.6366671
22
096_C10H10N2_17-0-9-10 (-75,) energy =    -496.5875007
C           2.3301599    -1.3533036    -0.2440383
H           2.4583691    -2.4145850    -0.0081062
H           1.6577487    -0.9444380     0.5231704
C           6.1106465     0.7607142    -0.1327091
H           7.0588325     1.2909548    -0.1085946
C           4.9794756     1.3185100     0.4621813
H           5.0415407     2.2854711     0.9546519
C           3.7628160     0.6308475     0.4337083
H           2.8867941     1.0641595     0.9124432
C           3.6581675    -0.6193136    -0.1885791
C           4.8030567    -1.1681532    -0.7851196
H           4.7350572    -2.1367803    -1.2749548
C           6.0188304    -0.4870468    -0.7560224
H           6.8968604    -0.9304744    -1.2183453
C           0.4884999    -1.7274091    -3.3368422
H          -0.1330677    -2.3114266    -4.0023428
N           0.9400832    -2.2454265    -2.1417902
C           1.6602586    -1.2876038    -1.5899660
N           1.6871523    -0.1720277    -2.3838416
H           2.2141975     0.6690249    -2.1958162
C           0.9404906    -0.4444600    -3.5128779
H           0.8169443     0.2754999    -4.3078670
22
096_C10H10N2_17-0-9-10 (-60,) energy =    -496.5874586
C           2.2578871    -1.1793556    -0.2226733
H           2.3082178    -2.2159547     0.1276084
H           1.5811905    -0.6520633     0.4640788
C           6.1653348     0.6907846    -0.0870074
H           7.1459968     1.1577869    -0.0538610
C           5.1070229     1.2281158     0.6444921
H           5.2577005     2.1167985     1.2519135
C           3.8475047     0.6237392     0.5997554
H           3.0271073     1.0432217     1.1786812
C           3.6283734    -0.5231414    -0.1716059
C           4.7001752    -1.0527293    -0.9062784
H           4.5420031    -1.9402642    -1.5145599
C           5.9575150    -0.4535316    -0.8629087
H           6.7777633    -0.8795433    -1.4348347
C           0.6579615    -1.8611463    -3.3952341
H           0.1513142    -2.5350765    -4.0729105
N           1.0918336    -2.2849057    -2.1570685
C           1.6569057    -1.2315300    -1.5985392
N           1.6009980    -0.1448427    -2.4316528
H           2.0123163     0.7593458    -2.2487021
C           0.9658571    -0.5393735    -3.5922916
H           0.8054095     0.1370798    -4.4183820
22
096_C10H10N2_17-0-9-10 (-45,) energy =    -496.5871626
C           2.1805745    -1.0495161    -0.2212252
H           2.1753681    -2.0458741     0.2362547
H           1.5027176    -0.4319172     0.3843022
C           6.1688888     0.6442724    -0.0433723
H           7.1694054     1.0655877     0.0052189
C           5.1705488     1.1039763     0.8155338
H           5.3883548     1.8872528     1.5369843
C           3.8850821     0.5619589     0.7479222
H           3.1105414     0.9263749     1.4196143
C           3.5779216    -0.4488393    -0.1706870
C           4.5884310    -0.8992229    -1.0330921
H           4.3638984    -1.6801366    -1.7554858
C           5.8727668    -0.3598922    -0.9685458
H           6.6440681    -0.7244352    -1.6421185
C           0.6550441    -2.0129977    -3.3557767
H           0.1550723    -2.7424290    -3.9787215
N           1.0530334    -2.3208860    -2.0723339
C           1.6200892    -1.2259497    -1.6024609
N           1.5995493    -0.2231347    -2.5370925
H           2.0172076     0.6904636    -2.4323284
C           0.9868003    -0.7200051    -3.6701565
H           0.8552387    -0.1238317    -4.5606622
22
096_C10H10N2_17-0-9-10 (-30,) energy =    -496.5864999
C           2.1212325    -0.8701785    -0.2371749
H           2.0329032    -1.8083986     0.3238978
H           1.4654000    -0.1493842     0.2708761
C           6.2067660     0.5743824    -0.0035655
H           7.2297517     0.9350354     0.0623642
C           5.2623967     0.9591132     0.9496726
H           5.5458817     1.6234575     1.7619599
C           3.9485919     0.4981864     0.8582912
H           3.2169247     0.8069642     1.6022804
C           3.5561497    -0.3599528    -0.1774128
C           4.5110410    -0.7353430    -1.1317607
H           4.2250150    -1.4010952    -1.9416515
C           5.8257169    -0.2745450    -1.0439820
H           6.5530730    -0.5801912    -1.7917147
C           0.7301689    -2.1280238    -3.3289463
H           0.2954596    -2.9280370    -3.9128835
N           1.1176984    -2.3259042    -2.0209285
C           1.5961427    -1.1668811    -1.6098564
N           1.5280403    -0.2285674    -2.6080773
H           1.8696509     0.7202784    -2.5531474
C           0.9769376    -0.8364537    -3.7182894
H           0.8223971    -0.3067121    -4.6463509
22
096_C10H10N2_17-0-9-10 (-15,) energy =    -496.5855696
C           2.0703025    -0.6929210    -0.2460974
H           1.8961637    -1.5509810     0.4139874
H           1.4552418     0.1262118     0.1527723
C           6.2388284     0.4900752     0.0384071
H           7.2805267     0.7885694     0.1200694
C           5.3382573     0.7881188     1.0638163
H           5.6759757     1.3220301     1.9483883
C           4.0018735     0.4071564     0.9531354
H           3.3054111     0.6482340     1.7539833
C           3.5393579    -0.2846331    -0.1755135
C           4.4490120    -0.5738343    -1.1990873
H           4.1137529    -1.1147120    -2.0793428
C           5.7887759    -0.1920811    -1.0915035
H           6.4805312    -0.4308905    -1.8952855
C           0.7612938    -2.2259801    -3.2473671
H           0.3737849    -3.0858183    -3.7769582
N           1.1499470    -2.3142802    -1.9280511
C           1.5613944    -1.1062041    -1.5932683
N           1.4477089    -0.2415127    -2.6527387
H           1.7249523     0.7296279    -2.6586007
C           0.9385031    -0.9515304    -3.7218146
H           0.7562833    -0.4929616    -4.6821770
22
096_C10H10N2_17-0-9-10 (0,) energy =    -496.5847144
C           3.3042393    -0.7761751    -2.5915147
H           3.3261012     0.0245070    -3.3451508
H           3.7300921    -1.6609085    -3.0779526
C           5.9130532     0.4138485     0.6710862
H           6.5757093     0.7150651     1.4779495
C           6.3813090     0.3674524    -0.6446566
H           7.4117382     0.6329378    -0.8667975
C           5.5284016    -0.0189486    -1.6765394
H           5.9009614    -0.0514804    -2.6986997
C           4.1952187    -0.3705724    -1.4186781
C           3.7362999    -0.3186315    -0.0986615
H           2.7116110    -0.5983821     0.1272378
C           4.5894898     0.0682916     0.9388216
H           4.2145977     0.0961352     1.9587908
C           0.0465783    -2.1838814    -1.9039834
H          -0.6148384    -3.0352428    -1.8162588
N           1.3734683    -2.3412089    -2.2399209
C           1.8842296    -1.1251692    -2.2667701
N           0.9286521    -0.1885104    -1.9600324
H           1.0703320     0.8098396    -1.9028710
C          -0.2555653    -0.8583466    -1.7237084
H          -1.1666128    -0.3409366    -1.4629473
22
096_C10H10N2_17-0-9-10 (15,) energy =    -496.5855694
C           3.3359907    -0.9503027    -2.5586105
H           3.4323325    -0.2557417    -3.4052059
H           3.7192063    -1.9144709    -2.9133364
C           5.8739724     0.4871702     0.6581819
H           6.5178082     0.8477088     1.4559096
C           6.3004265     0.5451619    -0.6707665
H           7.2784823     0.9530435    -0.9129163
C           5.4700092     0.0857647    -1.6918394
H           5.8076696     0.1396111    -2.7250935
C           4.2043992    -0.4474223    -1.4085326
C           3.7854049    -0.4965022    -0.0740569
H           2.8116288    -0.9121723     0.1683607
C           4.6148592    -0.0355694     0.9515292
H           4.2727988    -0.0872234     1.9820449
C          -0.0406028    -2.0740935    -1.9218895
H          -0.7763903    -2.8641631    -1.8559093
N           1.2712101    -2.3440155    -2.2469061
C           1.8886045    -1.1779576    -2.2457365
N           1.0173615    -0.1650522    -1.9324415
H           1.2521446     0.8127759    -1.8388846
C          -0.2241470    -0.7302006    -1.7193101
H          -1.0873322    -0.1383080    -1.4540677
22
096_C10H10N2_17-0-9-10 (30,) energy =    -496.5864998
C           3.3692609    -1.1134813    -2.5326929
H           3.5371858    -0.5317742    -3.4498683
H           3.7052560    -2.1335660    -2.7548875
C           5.8223627     0.5571061     0.6335676
H           6.4427800     0.9730375     1.4228742
C           6.1856959     0.7163302    -0.7047980
H           7.0910205     1.2593447    -0.9637160
C           5.3834151     0.1853154    -1.7153471
H           5.6703889     0.3184875    -2.7565492
C           4.2120566    -0.5202410    -1.4098847
C           3.8540477    -0.6692369    -0.0633546
H           2.9492239    -1.2138720     0.1928045
C           4.6537984    -0.1376639     0.9497314
H           4.3614063    -0.2673334     1.9886057
C          -0.1078928    -1.9507995    -1.9993317
H          -0.9114801    -2.6741706    -1.9682406
N           1.1840935    -2.3289493    -2.2960277
C           1.9003238    -1.2215605    -2.2522887
N           1.1132027    -0.1425238    -1.9398930
H           1.4345400     0.8052946    -1.8041878
C          -0.1780793    -0.6005414    -1.7702777
H          -0.9925555     0.0592830    -1.5113196
22
096_C10H10N2_17-0-9-10 (45,) energy =    -496.5871626
C           3.3982469    -1.2942634    -2.4428102
H           3.6209999    -0.8315295    -3.4143313
H           3.6871765    -2.3479635    -2.5336429
C           5.7821633     0.6413441     0.6195624
H           6.3829812     1.1227440     1.3864959
C           6.0383772     0.8845721    -0.7298388
H           6.8400404     1.5584557    -1.0208068
C           5.2616979     0.2661169    -1.7122288
H           5.4660673     0.4616277    -2.7629047
C           4.2242330    -0.6073253    -1.3649347
C           3.9722914    -0.8401553    -0.0047685
H           3.1668102    -1.5122277     0.2809497
C           4.7455428    -0.2238901     0.9784904
H           4.5382081    -0.4195419     2.0274046
C          -0.1488018    -1.8616777    -2.0198251
H          -1.0076445    -2.5192989    -2.0229303
N           1.1179223    -2.3383884    -2.2818531
C           1.9172335    -1.2917787    -2.1988500
N           1.2095492    -0.1576362    -1.8946560
H           1.6038617     0.7571467    -1.7280621
C          -0.1188881    -0.5131842    -1.7721863
H          -0.8858077     0.2053852    -1.5247023
22
096_C10H10N2_17-0-9-10 (60,) energy =    -496.5874588
C           3.4252806    -1.4174055    -2.3553827
H           3.7086340    -1.0581720    -3.3545300
H           3.6488646    -2.4895767    -2.3374600
C           5.7492856     0.6969012     0.6307298
H           6.3315788     1.2251943     1.3808818
C           5.8743677     1.0296194    -0.7174451
H           6.5552505     1.8191097    -1.0249117
C           5.1242044     0.3468978    -1.6790504
H           5.2321086     0.6063386    -2.7303158
C           4.2430548    -0.6758453    -1.3100532
C           4.1232845    -0.9991715     0.0500364
H           3.4378340    -1.7882695     0.3503749
C           4.8706513    -0.3216877     1.0115572
H           4.7684080    -0.5884063     2.0602656
C          -0.1670457    -1.7054212    -2.0296374
H          -1.0720360    -2.2980025    -2.0273609
N           1.0686966    -2.2857612    -2.2220234
C           1.9395601    -1.2959547    -2.1679209
N           1.3090439    -0.0992941    -1.9478718
H           1.7662316     0.7913941    -1.8142273
C          -0.0451048    -0.3509781    -1.8525626
H          -0.7639923     0.4333432    -1.6688142
22
096_C10H10N2_17-0-9-10 (75,) energy =    -496.5874988
C           3.4241967    -1.5810436    -2.2548526
H           3.7668550    -1.3503479    -3.2733540
H           3.5875986    -2.6537065    -2.1098119
C           5.6873126     0.7651829     0.5994109
H           6.2517917     1.3542245     1.3171751
C           5.6598025     1.1350884    -0.7448147
H           6.2046684     2.0132624    -1.0814491
C           4.9369355     0.3715079    -1.6658712
H           4.9313808     0.6565491    -2.7161451
C           4.2319445    -0.7679670    -1.2588858
C           4.2660316    -1.1278906     0.0965138
H           3.7201158    -2.0085550     0.4269890
C           4.9883982    -0.3709346     1.0173966
H           5.0082773    -0.6682138     2.0626374
C          -0.1944270    -1.5970797    -2.2088306
H          -1.1390424    -2.1135246    -2.3151564
N           1.0044333    -2.2632607    -2.3481089
C           1.9399666    -1.3528340    -2.1571049
N           1.3883079    -0.1255540    -1.9022503
H           1.9033485     0.7131882    -1.6747866
C           0.0155009    -0.2710831    -1.9279340
H          -0.6536965     0.5552267    -1.7408452
22
096_C10H10N2_17-0-9-10 (90,) energy =    -496.5872903
C           3.3767731    -1.7446245    -2.0743445
H           3.7959481    -1.8122824    -3.0830018
H           3.4109931    -2.7612884    -1.6576761
C           5.6592011     0.9547794     0.4298971
H           6.2251111     1.6366003     1.0588547
C           5.5701484     1.1780461    -0.9462763
H           6.0671009     2.0358742    -1.3916669
C           4.8452166     0.3019041    -1.7538608
H           4.7757653     0.4833264    -2.8238680
C           4.2030977    -0.8163707    -1.2043100
C           4.3007195    -1.0306344     0.1777291
H           3.8228903    -1.9038788     0.6180204
C           5.0222538    -0.1526352     0.9906471
H           5.0923194    -0.3399903     2.0589942
C          -0.0740652    -1.0620521    -2.9255366
H          -0.9147528    -1.1480138    -3.6010285
N           1.1542201    -1.6019885    -3.2412913
C           1.9387507    -1.3175171    -2.2195086
N           1.2617244    -0.6172597    -1.2576232
H           1.6660080    -0.2484495    -0.4083921
C          -0.0336724    -0.4421402    -1.7027411
H          -0.7713180     0.0960692    -1.1267557
22
096_C10H10N2_17-0-9-10 (105,) energy =    -496.5874810
C           3.3315814    -1.8132672    -1.9558755
H           3.7846659    -1.9972978    -2.9354189
H           3.2920991    -2.7859516    -1.4457075
C           5.6991517     0.9556386     0.3897472
H           6.2904236     1.6528638     0.9771792
C           5.4271526     1.2238122    -0.9549499
H           5.8072228     2.1315151    -1.4163603
C           4.6705394     0.3288628    -1.7094532
H           4.4575230     0.5440371    -2.7540428
C           4.1762018    -0.8529033    -1.1374734
C           4.4547125    -1.1104524     0.2104691
H           4.0876125    -2.0280162     0.6660767
C           5.2105699    -0.2137963     0.9711487
H           5.4204488    -0.4344019     2.0145343
C           0.0037456    -0.9434161    -3.0801417
H          -0.7763439    -0.9627070    -3.8294152
N           1.2321506    -1.5248377    -3.3113661
C           1.9334755    -1.3200009    -2.2128820
N           1.2020650    -0.6301733    -1.2828317
H           1.5421959    -0.3140829    -0.3856821
C          -0.0397128    -0.3778871    -1.8313246
H          -0.8027944     0.1697735    -1.2989575
22
096_C10H10N2_17-0-9-10 (120,) energy =    -496.5874596
C           3.2669513    -1.8554162    -1.7887835
H           3.7385296    -2.1612734    -2.7289169
H           3.1555313    -2.7674806    -1.1861443
C           5.7830853     0.9613220     0.3382190
H           6.4158932     1.6678295     0.8685820
C           5.3180836     1.2604789    -0.9458790
H           5.5899130     2.2012340    -1.4175726
C           4.5068294     0.3548428    -1.6267740
H           4.1436037     0.5932506    -2.6237302
C           4.1474844    -0.8679111    -1.0396540
C           4.6179482    -1.1560002     0.2463605
H           4.3522732    -2.1024618     0.7129725
C           5.4306837    -0.2494147     0.9329139
H           5.7877518    -0.4928891     1.9302331
C           0.1008969    -0.8124000    -3.1952742
H          -0.5932610    -0.7566722    -4.0230254
N           1.3309683    -1.4195544    -3.3336008
C           1.9144790    -1.3133282    -2.1550316
N           1.1041402    -0.6612548    -1.2626821
H           1.3504789    -0.4133519    -0.3150192
C          -0.0627092    -0.3297412    -1.9221146
H          -0.8657351     0.2040935    -1.4364169
22
096_C10H10N2_17-0-9-10 (135,) energy =    -496.5872019
C           3.1962158    -1.8924191    -1.6708319
H           3.6950567    -2.2964065    -2.5594847
H           3.0194483    -2.7480286    -1.0041539
C           5.8258964     0.9299659     0.3095398
H           6.4918057     1.6339063     0.8014204
C           5.1848080     1.2827625    -0.8807700
H           5.3529131     2.2625852    -1.3202794
C           4.3288914     0.3806619    -1.5114810
H           3.8343279     0.6602993    -2.4385338
C           4.0976706    -0.8904597    -0.9647991
C           4.7465532    -1.2327195     0.2274262
H           4.5796899    -2.2157658     0.6629298
C           5.6049541    -0.3317104     0.8617366
H           6.0979821    -0.6168364     1.7875112
C           0.1469397    -0.8580994    -3.3184902
H          -0.5005105    -0.8424651    -4.1848984
N           1.3629316    -1.5069948    -3.3464266
C           1.8871056    -1.3336033    -2.1479706
N           1.0512056    -0.5969929    -1.3491623
H           1.2527319    -0.2909196    -0.4080072
C          -0.0681087    -0.2810233    -2.0931584
H          -0.8786115     0.3078314    -1.6905632
22
096_C10H10N2_17-0-9-10 (150,) energy =    -496.5865987
C           3.1016944    -1.9275214    -1.5060946
H           3.6057785    -2.4463117    -2.3302811
H           2.8621017    -2.6998551    -0.7616904
C           5.8859001     0.9071342     0.2360857
H           6.5936371     1.6097857     0.6677150
C           5.0738425     1.2929213    -0.8318437
H           5.1500831     2.2979887    -1.2387760
C           4.1631723     0.3916866    -1.3853599
H           3.5412918     0.6975603    -2.2225270
C           4.0456478    -0.9095781    -0.8782781
C           4.8692623    -1.2866139     0.1904347
H           4.7929325    -2.2945056     0.5935160
C           5.7819896    -0.3884304     0.7449467
H           6.4092348    -0.7006263     1.5759721
C           0.2120865    -0.8697341    -3.4056625
H          -0.3581655    -0.8476993    -4.3245336
N           1.4194460    -1.5305746    -3.3287105
C           1.8399346    -1.3645696    -2.0890409
N           0.9440341    -0.6204457    -1.3645260
H           1.0606671    -0.3216228    -0.4068565
C          -0.1036017    -0.2932950    -2.2020795
H          -0.9422367     0.2995911    -1.8689502
22
096_C10H10N2_17-0-9-10 (165,) energy =    -496.5856724
C           3.0226950    -1.9091859    -1.3483121
H           3.5228013    -2.5496092    -2.0843938
H           2.7073840    -2.5743460    -0.5316941
C           5.9585241     0.9021095     0.1763979
H           6.7047005     1.5952506     0.5554452
C           5.0073362     1.3287032    -0.7499752
H           5.0119975     2.3574886    -1.1009588
C           4.0471171     0.4383696    -1.2370566
H           3.3209508     0.7786958    -1.9697075
C           4.0189256    -0.8913112    -0.8005742
C           4.9852215    -1.3108434     0.1247894
H           4.9811314    -2.3430892     0.4696951
C           5.9457522    -0.4252335     0.6112056
H           6.6834925    -0.7710446     1.3307385
C           0.3307319    -0.8440543    -3.5137188
H          -0.1481636    -0.8199050    -4.4832672
N           1.5215918    -1.5105411    -3.3208444
C           1.8209132    -1.3490251    -2.0460422
N           0.8613008    -0.6018441    -1.4105057
H           0.8771691    -0.3145046    -0.4424105
C          -0.0990339    -0.2693054    -2.3451154
H          -0.9652385     0.3240130    -2.0932314
22
096_C10H10N2_17-0-9-10 (180,) energy =    -496.5847317
C           2.9343627    -1.8916556    -1.1767981
H           3.4121708    -2.6593858    -1.7955173
H           2.5440145    -2.4149279    -0.2915747
C           6.0140775     0.8878524     0.1101165
H           6.7939552     1.5717163     0.4341554
C           4.9452181     1.3504299    -0.6556216
H           4.8895669     2.3991483    -0.9362319
C           3.9422198     0.4710264    -1.0736218
H           3.1246056     0.8431306    -1.6837816
C           3.9907641    -0.8833013    -0.7283481
C           5.0756977    -1.3393804     0.0348465
H           5.1332873    -2.3923428     0.3043188
C           6.0770559    -0.4653307     0.4529864
H           6.9083748    -0.8403340     1.0444952
C           0.4530530    -0.8699478    -3.5988743
H           0.0709654    -0.8553484    -4.6106963
N           1.6242547    -1.5248333    -3.2861740
C           1.7961319    -1.3550515    -1.9892760
N           0.7719915    -0.6130569    -1.4553431
H           0.6793136    -0.3358929    -0.4885806
C          -0.0955526    -0.2944592    -2.4814466
H          -0.9900193     0.2877888    -2.3182200
