20
364_C8H9NO2_0-4-13-8 (-165,) energy =    -515.4675494
C           2.3083252    -2.4019288    -1.3769482
H           3.0765827    -3.0945862    -1.0194899
H           2.5292115    -2.1669893    -2.4249095
H           1.3281155    -2.8794026    -1.3320314
C           2.2423272    -1.1326113    -0.5380395
C           5.8720065     1.0646558     0.1067047
H           6.7555037     1.6691815     0.2783071
C           4.7412932     1.3584034     0.9680132
N           3.5835853     0.5497479     0.7523180
C           2.4759272     0.7955933     1.6942855
H           2.9007657     1.3577999     2.5234524
H           2.0550014    -0.1483356     2.0369475
H           1.6849982     1.3789872     1.2201851
C           3.5309282    -0.4109584    -0.2391968
C           4.6322290    -0.6575492    -1.0268581
H           4.5804328    -1.4089214    -1.8025512
C           5.8200991     0.0973800    -0.8488977
H           6.6811114    -0.1012105    -1.4818408
O           1.1634505    -0.7122424    -0.1544732
O           4.7520387     2.2251058     1.8380526
20
364_C8H9NO2_0-4-13-8 (-150,) energy =    -515.4671616
C           2.3044297    -2.4464841    -1.2534754
H           2.9840625    -3.0952619    -0.6914505
H           2.6641250    -2.4098303    -2.2886652
H           1.2973928    -2.8674583    -1.2554912
C           2.2332422    -1.0548015    -0.6447489
C           5.8822666     1.0688161     0.1094200
H           6.7706313     1.6565578     0.3114525
C           4.7600408     1.3128829     0.9969800
N           3.5936763     0.5338084     0.7277703
C           2.4766402     0.7358211     1.6670601
H           2.8992482     1.2078822     2.5517793
H           2.0185183    -0.2200006     1.9198502
H           1.7161569     1.3851491     1.2301017
C           3.5328542    -0.3626093    -0.3177166
C           4.6278761    -0.5786695    -1.1203030
H           4.5664654    -1.2893413    -1.9338004
C           5.8192942     0.1623290    -0.9041683
H           6.6760467     0.0005872    -1.5532795
O           1.1590218    -0.5201620    -0.4302393
O           4.7792735     2.1142090     1.9274006
20
364_C8H9NO2_0-4-13-8 (-135,) energy =    -515.4661222
C           2.2535876    -2.5134999    -1.0911094
H           2.6028761    -3.1058539    -0.2357604
H           2.9433616    -2.7156867    -1.9167481
H           1.2461688    -2.8305150    -1.3676027
C           2.2208649    -1.0477060    -0.7040645
C           5.9073110     1.0135242     0.0468541
H           6.8054778     1.5833048     0.2567029
C           4.8255712     1.1840210     0.9990781
N           3.6463423     0.4305503     0.7111024
C           2.5473344     0.5715212     1.6802971
H           2.9757684     1.0253655     2.5715598
H           2.1242215    -0.4066806     1.9158871
H           1.7588869     1.2095490     1.2777582
C           3.5418898    -0.3793757    -0.3961790
C           4.5978433    -0.5328441    -1.2602918
H           4.4980163    -1.1744455    -2.1265013
C           5.7971688     0.1948356    -1.0355761
H           6.6248437     0.0905076    -1.7325228
O           1.1733075    -0.4346041    -0.6037696
O           4.8831362     1.9040368     1.9922245
20
364_C8H9NO2_0-4-13-8 (-120,) energy =    -515.4645359
C           2.2228740    -2.4811354    -0.9340543
H           2.4599077    -2.9332804     0.0381293
H           3.0015014    -2.8126989    -1.6295406
H           1.2436654    -2.8292676    -1.2693585
C           2.2041850    -0.9748677    -0.7824836
C           5.9036286     1.0195412     0.0837338
H           6.8091910     1.5612616     0.3323165
C           4.8276758     1.1304817     1.0501896
N           3.6375120     0.4178186     0.7024385
C           2.5155202     0.5190220     1.6478003
H           2.8968984     1.0310398     2.5289027
H           2.1578491    -0.4781132     1.9201992
H           1.6937368     1.0841289     1.2047607
C           3.5264129    -0.3061187    -0.4589936
C           4.5761440    -0.4141650    -1.3339601
H           4.4670482    -1.0021608    -2.2377461
C           5.7824012     0.2850206    -1.0573622
H           6.6094935     0.2239520    -1.7602607
O           1.1811006    -0.3214508    -0.8607783
O           4.8919365     1.7690822     2.0972303
20
364_C8H9NO2_0-4-13-8 (-105,) energy =    -515.4625920
C           2.1908216    -2.3098225    -0.7610600
H           2.4195117    -2.6335526     0.2625419
H           2.9609041    -2.7510126    -1.4051838
H           1.2029304    -2.6720951    -1.0534940
C           2.2287108    -0.7990173    -0.8349365
C           5.9389110     1.1011628     0.1973557
H           6.8509862     1.6045942     0.4972328
C           4.8549536     1.1505542     1.1580600
N           3.6588055     0.4867389     0.7368753
C           2.5123553     0.5481427     1.6537958
H           2.8602728     1.0499028     2.5547911
H           2.1667370    -0.4600605     1.9039029
H           1.6920901     1.1081403     1.1996401
C           3.5521999    -0.1390318    -0.4791738
C           4.6043202    -0.1869299    -1.3535776
H           4.4971658    -0.7020095    -2.3015508
C           5.8176145     0.4662333    -1.0029204
H           6.6525686     0.4506912    -1.6990965
O           1.2612677    -0.1240329    -1.1253568
O           4.9091797     1.7010124     2.2548279
20
364_C8H9NO2_0-4-13-8 (-90,) energy =    -515.4614906
C           2.1131966    -2.3017964    -0.6593439
H           2.2831078    -2.4792215     0.4096933
H           2.8917926    -2.8578825    -1.1963938
H           1.1271703    -2.6712119    -0.9494283
C           2.2270658    -0.8269621    -0.9800733
C           5.9077941     1.0682161     0.1853466
H           6.8184351     1.5507223     0.5218415
C           4.8229681     1.0369654     1.1429045
N           3.6273568     0.4157505     0.6671300
C           2.5057625     0.4141989     1.6130298
H           2.5307266     1.3529593     2.1662508
H           2.6089781    -0.4025550     2.3357523
H           1.5631768     0.3232112     1.0735755
C           3.5305237    -0.1485757    -0.5789478
C           4.5800416    -0.1145904    -1.4570059
H           4.4760939    -0.5605369    -2.4395398
C           5.7897349     0.5154983    -1.0563536
H           6.6256161     0.5516474    -1.7506834
O           1.3603129    -0.2034396    -1.5580153
O           4.8566318     1.4907762     2.2844117
20
364_C8H9NO2_0-4-13-8 (-75,) energy =    -515.4620845
C           2.0547322    -2.2984638    -0.5123748
H           2.2232232    -2.3669522     0.5672937
H           2.7876831    -2.9613258    -0.9907687
H           1.0474709    -2.6393905    -0.7620625
C           2.2658055    -0.8919125    -1.0382287
C           5.8918347     1.0347717     0.2271621
H           6.7966141     1.5083936     0.5910354
C           4.8104650     0.9291119     1.1841201
N           3.6252835     0.3173119     0.6754039
C           2.4936651     0.2802626     1.6073581
H           2.5085506     1.2007390     2.1913771
H           2.5861352    -0.5587771     2.3052480
H           1.5570306     0.2050989     1.0529895
C           3.5338682    -0.1785327    -0.6008822
C           4.5715821    -0.0529882    -1.4851250
H           4.4638264    -0.4332435    -2.4939339
C           5.7748870     0.5650947    -1.0485012
H           6.6059084     0.6608931    -1.7429341
O           1.5269992    -0.3798062    -1.8551501
O           4.8378508     1.3219970     2.3482980
20
364_C8H9NO2_0-4-13-8 (-60,) energy =    -515.4629249
C           1.7095631    -2.0498454    -0.7375874
H           1.9207599    -2.1920085     0.3245336
H           2.2966358    -2.7964219    -1.2890929
H           0.6518307    -2.2300808    -0.9449451
C           2.1091688    -0.6810402    -1.2633150
C           5.6942447     0.9905138     0.4004984
H           6.5971173     1.3774800     0.8593574
C           4.5812102     0.7633107     1.2998850
N           3.4008500     0.2655312     0.6740762
C           2.2309002     0.1761070     1.5541204
H           2.2462564     1.0373091     2.2233080
H           2.2699378    -0.7252157     2.1742519
H           1.3162279     0.1825576     0.9598885
C           3.3350560    -0.0208503    -0.6688858
C           4.3992622     0.2306257    -1.4950225
H           4.3091049     0.0133500    -2.5520837
C           5.6026874     0.7407658    -0.9373824
H           6.4536166     0.9281038    -1.5875092
O           1.5600469    -0.1826579    -2.2273664
O           4.5809164     0.9799515     2.5096846
20
364_C8H9NO2_0-4-13-8 (-45,) energy =    -515.4635911
C           1.8702393    -2.0825742    -0.3510452
H           2.5558245    -2.4228786     0.4293789
H           1.6978621    -2.8882348    -1.0699824
H           0.9052313    -1.8469953     0.1121834
C           2.3981865    -0.8818303    -1.1246518
C           5.8500430     1.1336145     0.4261526
H           6.7286103     1.6009076     0.8565522
C           4.7557525     0.8933284     1.3466707
N           3.6033456     0.2894777     0.7623752
C           2.4341430     0.2061358     1.6451111
H           2.5104444     1.0216538     2.3642222
H           2.4183508    -0.7345685     2.2042980
H           1.5187304     0.3065700     1.0603101
C           3.5520204    -0.0841174    -0.5625561
C           4.5991245     0.1822060    -1.4074431
H           4.5176511    -0.1135477    -2.4455075
C           5.7702007     0.8001581    -0.8933391
H           6.6056056     0.9985679    -1.5599852
O           1.9812767    -0.6254413    -2.2398136
O           4.7575458     1.1863834     2.5402077
20
364_C8H9NO2_0-4-13-8 (-30,) energy =    -515.4633576
C           1.7853503    -2.0042363    -0.2592481
H           2.3965282    -2.3585292     0.5748762
H           1.5585783    -2.8346173    -0.9324781
H           0.8342485    -1.6372496     0.1426104
C           2.4698852    -0.9248809    -1.0848195
C           5.8327956     1.1902430     0.5331829
H           6.6990722     1.6693268     0.9754617
C           4.7539253     0.8796097     1.4508693
N           3.6113070     0.2673649     0.8557842
C           2.4437963     0.1807277     1.7421205
H           2.5251833     0.9923901     2.4651676
H           2.4266877    -0.7608602     2.2990178
H           1.5274256     0.2875016     1.1618269
C           3.5580840    -0.0618503    -0.4847090
C           4.5976717     0.2647458    -1.3201918
H           4.5225095    -0.0146827    -2.3629364
C           5.7500725     0.9075075    -0.7973170
H           6.5712068     1.1578269    -1.4641436
O           2.2056789    -0.8017418    -2.2686708
O           4.7600076     1.1308340     2.6539653
20
364_C8H9NO2_0-4-13-8 (-15,) energy =    -515.4619603
C           1.7014497    -1.9516299    -0.3123280
H           2.2097069    -2.3349594     0.5762377
H           1.4028313    -2.7826048    -0.9550179
H           0.7912945    -1.4356751     0.0126156
C           2.5727291    -1.0289520    -1.1486947
C           5.8333480     1.2500021     0.4763576
H           6.6793392     1.7668411     0.9153805
C           4.7790012     0.8818327     1.4002825
N           3.6535908     0.2278107     0.8130998
C           2.4987282     0.1186397     1.7146582
H           2.6022539     0.9044703     2.4625607
H           2.4815821    -0.8400117     2.2412837
H           1.5737101     0.2540805     1.1557611
C           3.6021606    -0.0992724    -0.5321968
C           4.6280386     0.2741521    -1.3668393
H           4.5645027    -0.0191668    -2.4062280
C           5.7507692     0.9726357    -0.8545900
H           6.5518415     1.2646835    -1.5287529
O           2.4750785    -1.0594667    -2.3646446
O           4.7920608     1.1238961     2.6053719
20
364_C8H9NO2_0-4-13-8 (0,) energy =    -515.4602228
C           1.4396089    -1.5635781    -0.5646554
H           1.0760420    -2.4474692    -1.0914456
H           1.0717536    -0.6641307    -1.0654305
H           1.0308419    -1.5711539     0.4512833
C           2.9558003    -1.6540328    -0.5509105
C           5.8065504     1.4169843     0.4906298
H           6.5112364     2.2071163     0.7240521
C           4.4107234     1.7556049     0.6732519
N           3.4791479     0.7022337     0.3966497
C           2.0937529     1.0391190     0.7473779
H           2.1413533     1.9568942     1.3310733
H           1.6428095     0.2446482     1.3412516
H           1.4873760     1.2315934    -0.1418884
C           3.8836403    -0.5379183    -0.0798880
C           5.2236539    -0.7978420    -0.2451570
H           5.5002300    -1.7675991    -0.6352306
C           6.1955425     0.1867906     0.0571074
H           7.2495696    -0.0451296    -0.0722377
O           3.4715586    -2.6897487    -0.9406883
O           4.0162201     2.8554029     1.0562085
20
364_C8H9NO2_0-4-13-8 (15,) energy =    -515.4619604
C           1.4860807    -1.5190867    -0.7566967
H           1.1775577    -2.3303502    -1.4195761
H           1.3232578    -0.5567166    -1.2487821
H           0.8518202    -1.5562217     0.1357807
C           2.9408432    -1.7664530    -0.3927620
C           5.7619211     1.3940337     0.3277048
H           6.4538352     2.2198207     0.4497522
C           4.3650550     1.7126465     0.5470166
N           3.4605347     0.6157027     0.4143117
C           2.1071113     0.9047934     0.9073614
H           2.1963355     1.7194186     1.6257167
H           1.6892385     0.0233078     1.3918535
H           1.4439961     1.2414129     0.1051100
C           3.8766559    -0.6489204     0.0309086
C           5.2137767    -0.8995654    -0.1634756
H           5.4988990    -1.8922867    -0.4853491
C           6.1688233     0.1352154     0.0036837
H           7.2230972    -0.0804572    -0.1496146
O           3.3916916    -2.8969802    -0.4801829
O           3.9443197     2.8244793     0.8597637
20
364_C8H9NO2_0-4-13-8 (30,) energy =    -515.4633576
C           1.5054243    -1.4422929    -0.8364026
H           1.2670910    -2.2495926    -1.5332955
H           1.4600469    -0.4800712    -1.3530221
H           0.7402873    -1.4481026    -0.0519945
C           2.8769203    -1.7404121    -0.2487914
C           5.7102874     1.4366547     0.2795047
H           6.4003259     2.2691660     0.3591194
C           4.3219408     1.7466746     0.5605333
N           3.4255140     0.6407151     0.4720451
C           2.0787076     0.9136688     0.9895305
H           2.1728189     1.6998639     1.7387006
H           1.6646986     0.0130652     1.4427241
H           1.4095634     1.2795866     0.2050785
C           3.8371286    -0.6207031     0.0879348
C           5.1650566    -0.8723649    -0.1543709
H           5.4486880    -1.8712816    -0.4589461
C           6.1144731     0.1774460    -0.0491875
H           7.1631128    -0.0284884    -0.2479920
O           3.2496014    -2.8943651    -0.1224035
O           3.9006755     2.8549375     0.8843855
20
364_C8H9NO2_0-4-13-8 (45,) energy =    -515.4635911
C           1.5788748    -1.4976835    -0.9518039
H           1.4145628    -2.3186310    -1.6551540
H           1.6216024    -0.5490083    -1.4931875
H           0.7185108    -1.4725476    -0.2732417
C           2.8571377    -1.8013967    -0.1818720
C           5.7469000     1.3412901     0.2121292
H           6.4467458     2.1669903     0.2747536
C           4.3756672     1.6564141     0.5628691
N           3.4704387     0.5569546     0.4872394
C           2.1253856     0.8264115     1.0082360
H           2.2190405     1.6071229     1.7630449
H           1.7112612    -0.0787347     1.4546627
H           1.4566924     1.1954027     0.2243124
C           3.8573515    -0.6956468     0.0641151
C           5.1692258    -0.9603681    -0.2360022
H           5.4388408    -1.9599679    -0.5519122
C           6.1264357     0.0864731    -0.1619994
H           7.1636868    -0.1199866    -0.4133242
O           3.1373372    -2.9428116     0.1372026
O           3.9734624     2.7598129     0.9250341
20
364_C8H9NO2_0-4-13-8 (60,) energy =    -515.4629248
C           1.6386390    -1.9058659    -0.8841556
H           2.0193396    -2.2432287    -1.8575333
H           1.2720770    -0.8854775    -1.0157944
H           0.8226224    -2.5709295    -0.5907646
C           2.7794054    -2.0227756     0.1132002
C           5.5752499     1.2325273     0.1521632
H           6.2469316     2.0834267     0.1351925
C           4.2045685     1.5225575     0.5215364
N           3.3414559     0.3880803     0.5486243
C           1.9943406     0.6543147     1.0640376
H           2.0822647     1.3697968     1.8826132
H           1.5438504    -0.2710962     1.4251976
H           1.3589422     1.1069601     0.2960250
C           3.7624790    -0.8753247     0.2073822
C           5.0729112    -1.1180266    -0.1122452
H           5.3777507    -2.1280450    -0.3564794
C           5.9896825    -0.0327365    -0.1445888
H           7.0268611    -0.2192618    -0.4116233
O           2.9937739    -3.0554234     0.7190142
O           3.7607055     2.6294683     0.8186794
20
364_C8H9NO2_0-4-13-8 (75,) energy =    -515.4620842
C           1.7009068    -1.5898901    -1.2392194
H           2.2003220    -1.7851377    -2.1973225
H           1.3228066    -0.5632903    -1.2826096
H           0.8749397    -2.2939921    -1.1162197
C           2.7104801    -1.7830600    -0.1242653
C           5.8254746     1.1682562     0.0889292
H           6.5778143     1.9471225     0.1405117
C           4.5066259     1.5394669     0.5570420
N           3.5385393     0.4922790     0.4950282
C           2.2210876     0.8284839     1.0443507
H           2.3720895     1.4763026     1.9081199
H           1.7004382    -0.0813285     1.3466782
H           1.6198965     1.3810147     0.3143688
C           3.8192603    -0.7502053    -0.0153459
C           5.0802269    -1.0724919    -0.4403280
H           5.2787220    -2.0684637    -0.8178348
C           6.0976229    -0.0811730    -0.3870154
H           7.0993309    -0.3277220    -0.7303052
O           2.7167295    -2.7642753     0.5917188
O           4.1808453     2.6408525     0.9943598
20
364_C8H9NO2_0-4-13-8 (90,) energy =    -515.4614906
C           1.8106163    -1.6963254    -1.2814553
H           2.4187136    -1.9105653    -2.1692537
H           1.3914466    -0.6927776    -1.4241959
H           1.0066694    -2.4307652    -1.1970109
C           2.6817307    -1.7396493    -0.0444153
C           5.8701291     1.1428464     0.1074909
H           6.6434714     1.9007070     0.1613198
C           4.5804662     1.5224699     0.6435782
N           3.5855667     0.4987547     0.5809518
C           2.2851840     0.8559805     1.1589603
H           2.4657043     1.4824838     2.0323795
H           1.7464383    -0.0454185     1.4504850
H           1.6910168     1.4387454     0.4466328
C           3.8191209    -0.7282463     0.0148521
C           5.0469505    -1.0519488    -0.4963089
H           5.2090745    -2.0315094    -0.9313068
C           6.0901213    -0.0879291    -0.4384472
H           7.0697313    -0.3400981    -0.8370344
O           2.5295790    -2.5488489     0.8478307
O           4.2959698     2.6143543     1.1303719
20
364_C8H9NO2_0-4-13-8 (105,) energy =    -515.4625921
C           1.9121611    -1.7543669    -1.3335749
H           2.6109986    -2.0528217    -2.1242194
H           1.4963992    -0.7847282    -1.6365737
H           1.1104981    -2.4903918    -1.2425054
C           2.6293376    -1.6065537    -0.0094817
C           5.9030660     1.1695643     0.1243633
H           6.7031076     1.8978487     0.1935486
C           4.6477212     1.5629820     0.7323638
N           3.6092485     0.5826288     0.6357313
C           2.3294490     0.9117287     1.2781146
H           2.4193967     1.9313486     1.6481158
H           2.1304630     0.2243703     2.1031187
H           1.5105928     0.8537114     0.5538379
C           3.7949000    -0.6296763     0.0212700
C           4.9876657    -0.9598506    -0.5636663
H           5.1017756    -1.9189275    -1.0562025
C           6.0661769    -0.0362098    -0.4904686
H           7.0234461    -0.2972653    -0.9349203
O           2.2923483    -2.1965876     0.9975917
O           4.4414543     2.6362280     1.2931054
20
364_C8H9NO2_0-4-13-8 (120,) energy =    -515.4645359
C           1.9411565    -1.9168256    -1.5122967
H           2.7170265    -2.2431315    -2.2133290
H           1.4988115    -1.0065017    -1.9382096
H           1.1717235    -2.6856682    -1.4157114
C           2.5119525    -1.5923492    -0.1480834
C           5.8911683     1.0443464     0.0585437
H           6.7252932     1.7293682     0.1599314
C           4.6661284     1.4544576     0.7181690
N           3.5789222     0.5352834     0.5824971
C           2.3229598     0.9053682     1.2521308
H           2.4520949     1.9233728     1.6139933
H           2.1206753     0.2283102     2.0837749
H           1.4893035     0.8626178     0.5453079
C           3.6944502    -0.6433615    -0.1123434
C           4.8595130    -0.9828819    -0.7499387
H           4.9209794    -1.9131102    -1.3025395
C           5.9851334    -0.1219497    -0.6394833
H           6.9195259    -0.3983488    -1.1215531
O           2.0279697    -2.0197963     0.8828553
O           4.5277428     2.4996277     1.3480128
20
364_C8H9NO2_0-4-13-8 (135,) energy =    -515.4661223
C           2.0210080    -2.0477915    -1.5681741
H           2.8411586    -2.5116357    -2.1254434
H           1.6577772    -1.2113913    -2.1789163
H           1.2168395    -2.7723787    -1.4263031
C           2.4585775    -1.5247392    -0.2137845
C           5.9078380     1.0122349     0.0484197
H           6.7655598     1.6631703     0.1748581
C           4.7104103     1.4149828     0.7625063
N           3.5874945     0.5485161     0.5906323
C           2.3561711     0.9550445     1.2874850
H           2.4924746     1.9948671     1.5774311
H           2.1935654     0.3380919     2.1727494
H           1.4958157     0.8536308     0.6234724
C           3.6468804    -0.5902303    -0.1792282
C           4.7923004    -0.9233496    -0.8591720
H           4.8210936    -1.8230637    -1.4605226
C           5.9479097    -0.1079640    -0.7246180
H           6.8613653    -0.3844819    -1.2450030
O           1.8585584    -1.8088402     0.8072907
O           4.6260515     2.4198554     1.4633565
20
364_C8H9NO2_0-4-13-8 (150,) energy =    -515.4671617
C           2.1620696    -2.1617532    -1.5447897
H           2.9200437    -2.9243175    -1.7599956
H           2.1639520    -1.4512370    -2.3777647
H           1.1910169    -2.6548788    -1.4724807
C           2.4388095    -1.4673903    -0.2205283
C           5.8843567     1.0645635     0.1142345
H           6.7457411     1.7065600     0.2602394
C           4.7157292     1.4016169     0.9063473
N           3.5835020     0.5540690     0.7075161
C           2.3778674     0.9340700     1.4644047
H           2.5205854     1.9678101     1.7729276
H           2.2572859     0.2997618     2.3441768
H           1.4920875     0.8361095     0.8373604
C           3.6122030    -0.5220005    -0.1536018
C           4.7338160    -0.7915086    -0.9014419
H           4.7394852    -1.6365984    -1.5770103
C           5.8927532     0.0146366    -0.7521519
H           6.7828829    -0.2141281    -1.3325500
O           1.7330708    -1.6714157     0.7521553
O           4.6643104     2.3445888     1.6914084
20
364_C8H9NO2_0-4-13-8 (165,) energy =    -515.4675495
C           2.2393725    -2.2642759    -1.5172999
H           2.9802706    -3.0722291    -1.4951533
H           2.3825022    -1.7034550    -2.4461513
H           1.2440795    -2.7114985    -1.5033098
C           2.3647416    -1.3784634    -0.2848607
C           5.8756802     1.0570908     0.1148582
H           6.7539847     1.6721060     0.2754990
C           4.7336862     1.3737546     0.9528429
N           3.5715992     0.5737766     0.7284337
C           2.3910556     0.9659799     1.5203664
H           2.5992222     1.9629560     1.9034875
H           2.2344918     0.2767879     2.3517368
H           1.4996926     0.9657675     0.8949982
C           3.5547691    -0.4590870    -0.1890375
C           4.6613863    -0.7166232    -0.9656738
H           4.6400563    -1.5291549    -1.6786124
C           5.8406007     0.0556929    -0.8057162
H           6.7108882    -0.1617055    -1.4195010
O           1.5306112    -1.4487801     0.6023168
O           4.7309333     2.2678896     1.7947289
20
364_C8H9NO2_0-4-13-8 (180,) energy =    -515.4672692
C           2.3227239    -2.3324650    -1.4795472
H           3.0927622    -3.0842705    -1.2751993
H           2.5142221    -1.9183526    -2.4753914
H           1.3435842    -2.8134285    -1.4746521
C           2.2996932    -1.2447316    -0.4115926
C           5.8864555     1.0702389     0.1031652
H           6.7702651     1.6770275     0.2646905
C           4.7546758     1.3833406     0.9552494
N           3.5866570     0.5840817     0.7438546
C           2.4471159     0.9183887     1.6203802
H           2.7880720     1.7351958     2.2524955
H           2.1625135     0.0573416     2.2249796
H           1.5846751     1.2249233     1.0284889
C           3.5445382    -0.4184035    -0.2098159
C           4.6482362    -0.6746203    -0.9926887
H           4.6106009    -1.4583917    -1.7353545
C           5.8354633     0.0830766    -0.8309960
H           6.6975539    -0.1316992    -1.4570712
O           1.2846924    -1.0745151     0.2436444
O           4.7738473     2.2688446     1.8061143
