13
268_C4H6N2O_0-4-7-8 (-165,) energy =    -340.7182186
C           1.3485980    -0.7381753    -0.4452839
H           0.8106297    -1.4588797    -1.0639815
H           1.0575822     0.2808880    -0.7328090
H           1.0843876    -0.9031967     0.6084472
O           2.7287602    -0.9692579    -0.6802953
C           3.3368856     0.8146458     0.9786954
H           2.4162307     1.0135802     1.5049270
C           3.5799948    -0.1057023    -0.0757480
N           4.8419516    -0.0808045    -0.4942740
N           5.4230034     0.8478390     0.3055446
H           6.4028821     1.0456663     0.1771682
C           4.5668556     1.4095117     1.1909348
H           4.8825336     2.1706974     1.8906188
13
268_C4H6N2O_0-4-7-8 (-150,) energy =    -340.7173650
C           1.3367521    -0.7260415    -0.4860648
H           0.8144631    -1.4892642    -1.0664894
H           1.1503478     0.2621023    -0.9260105
H           0.9534637    -0.7392038     0.5435580
O           2.7157651    -1.0647840    -0.5384697
C           3.3494548     0.7498817     1.0749735
H           2.4593538     0.8962514     1.6673488
C           3.5640025    -0.1540397     0.0003427
N           4.7899471    -0.0624868    -0.5059173
N           5.3806027     0.8861469     0.2621913
H           6.3383474     1.1326136     0.0677841
C           4.5596083     1.4036923     1.2072081
H           4.8863187     2.1752530     1.8903434
13
268_C4H6N2O_0-4-7-8 (-135,) energy =    -340.7164984
C           1.3483202    -0.7059405    -0.5408830
H           0.8198053    -1.5401169    -1.0071758
H           1.2666890     0.1830268    -1.1791725
H           0.8868802    -0.4929983     0.4328145
O           2.7031392    -1.1215428    -0.4057959
C           3.3938789     0.6906786     1.1818953
H           2.5495325     0.7808567     1.8483093
C           3.5562345    -0.1774671     0.0694151
N           4.7331429    -0.0232228    -0.5290112
N           5.3452829     0.9315035     0.2128891
H           6.2757983     1.2190404    -0.0466790
C           4.5820927     1.3919855     1.2347833
H           4.9334806     2.1588908     1.9109271
13
268_C4H6N2O_0-4-7-8 (-120,) energy =    -340.7160302
C           1.3605305    -0.6925181    -0.5997376
H           0.7939275    -1.5708698    -0.9165110
H           1.3910603     0.0385093    -1.4178553
H           0.8641020    -0.2388072     0.2684425
O           2.6693146    -1.1566442    -0.2776919
C           3.4358599     0.6337583     1.2903630
H           2.6476028     0.6640168     2.0274755
C           3.5327699    -0.1924975     0.1398320
N           4.6497846     0.0231487    -0.5480582
N           5.2860683     0.9805186     0.1679105
H           6.1852361     1.3045337    -0.1524548
C           4.5975190     1.3785459     1.2678666
H           4.9802477     2.1350727     1.9386918
13
268_C4H6N2O_0-4-7-8 (-105,) energy =    -340.7159682
C           1.3792626    -0.6865325    -0.6559598
H           0.7741492    -1.5676224    -0.8810702
H           1.5323899    -0.1028691    -1.5725917
H           0.8547254    -0.0650139     0.0823263
O           2.6203274    -1.1711670    -0.1447573
C           3.4835877     0.5913729     1.3920562
H           2.7577919     0.5757063     2.1912289
C           3.5020846    -0.1983959     0.2136345
N           4.5523907     0.0648375    -0.5588317
N           5.2194162     1.0227293     0.1256048
H           6.0835692     1.3749428    -0.2559517
C           4.6196691     1.3686229     1.2942400
H           5.0412119     2.1154892     1.9524541
13
268_C4H6N2O_0-4-7-8 (-90,) energy =    -340.7162541
C           1.3957535    -0.6868270    -0.7131410
H           0.7563555    -1.5575394    -0.8753843
H           1.6728903    -0.2493945    -1.6801437
H           0.8502507     0.0612451    -0.1218763
O           2.5488484    -1.1584961    -0.0149326
C           3.5315941     0.5593991     1.4880155
H           2.8737749     0.5068222     2.3423792
C           3.4576228    -0.1913700     0.2879816
N           4.4392676     0.1055287    -0.5599800
N           5.1479730     1.0541194     0.0936656
H           5.9717767     1.4309805    -0.3489038
C           4.6476714     1.3541081     1.3206786
H           5.1156844     2.0862643     1.9638140
13
268_C4H6N2O_0-4-7-8 (-75,) energy =    -340.7169010
C           1.4123117    -0.6966816    -0.7684196
H           0.7434203    -1.5542555    -0.8702018
H           1.8028475    -0.4154992    -1.7531636
H           0.8584076     0.1509329    -0.3426803
O           2.4654884    -1.1110008     0.1040695
C           3.5838932     0.5382382     1.5733079
H           2.9949728     0.4534385     2.4738950
C           3.4032872    -0.1572718     0.3527937
N           4.3153249     0.1696397    -0.5602710
N           5.0812163     1.0892677     0.0702265
H           5.8658647     1.4849191    -0.4240252
C           4.6896305     1.3336058     1.3477756
H           5.2144351     2.0361051     1.9799434
13
268_C4H6N2O_0-4-7-8 (-60,) energy =    -340.7179622
C           1.4279277    -0.7178367    -0.8166370
H           0.7175064    -1.5468746    -0.8464592
H           1.9164306    -0.6148683    -1.7913974
H           0.8968586     0.2128281    -0.5771384
O           2.3736707    -1.0416017     0.2052496
C           3.6374149     0.5116796     1.6424577
H           3.1187212     0.3893162     2.5809309
C           3.3441641    -0.1122904     0.4057416
N           4.1878198     0.2457121    -0.5599398
N           5.0195354     1.1206865     0.0532717
H           5.7612853     1.5398560    -0.4855114
C           4.7365304     1.3013169     1.3688743
H           5.3214134     1.9634349     1.9918033
13
268_C4H6N2O_0-4-7-8 (-45,) energy =    -340.7194910
C           1.4478453    -0.7338703    -0.8602020
H           0.6625302    -1.4908600    -0.8070540
H           2.0123247    -0.8498675    -1.7911610
H           1.0004161     0.2675912    -0.8339930
O           2.2794350    -0.9487731     0.2821821
C           3.6801059     0.4866251     1.6980665
H           3.2269587     0.3180873     2.6628172
C           3.2810942    -0.0509825     0.4500245
N           4.0593714     0.3498497    -0.5525583
N           4.9568648     1.1688907     0.0499390
H           5.6562690     1.6201643    -0.5183176
C           4.7731382     1.2717806     1.3906385
H           5.4150341     1.8841933     2.0082658
13
268_C4H6N2O_0-4-7-8 (-30,) energy =    -340.7212591
C           1.4688707    -0.7461018    -0.8959693
H           0.6199048    -1.4263565    -0.8029795
H           2.0956301    -1.0448631    -1.7427683
H           1.1135103     0.2778449    -1.0619689
O           2.1832744    -0.8426761     0.3371225
C           3.7177960     0.4637920     1.7278206
H           3.3269470     0.2477209     2.7101142
C           3.2222069     0.0113760     0.4796470
N           3.9392980     0.4551455    -0.5493924
N           4.8996797     1.2155323     0.0381044
H           5.5669323     1.6889855    -0.5499909
C           4.8066023     1.2419822     1.3914443
H           5.5026637     1.8028128     1.9993882
13
268_C4H6N2O_0-4-7-8 (-15,) energy =    -340.7226824
C           1.6059982    -1.2242107    -0.5163468
H           0.5823966    -1.2977742    -0.8884749
H           1.7394653    -1.8805632     0.3504852
H           2.3152469    -1.5245890    -1.2960756
O           1.7913210     0.1451563    -0.1587298
C           3.4883174     1.8135809     0.4057923
H           2.9480236     2.7235147     0.1952030
C           3.0325106     0.4796001     0.2543014
N           3.9464078    -0.4198982     0.6074035
N           5.0110966     0.3399691     0.9813571
H           5.8534683    -0.1235607     1.2820385
C           4.7765254     1.6721753     0.8785939
H           5.5274134     2.4044001     1.1407496
13
268_C4H6N2O_0-4-7-8 (0,) energy =    -340.7232314
C           1.5958541    -1.2241517    -0.4940096
H           0.5819541    -1.3004325    -0.8910233
H           1.6722605    -1.7642134     0.4563407
H           2.3128773    -1.6569993    -1.2004808
O           1.8356827     0.1705688    -0.3108451
C           3.4751572     1.8250425     0.4315077
H           2.9196852     2.7367835     0.2753203
C           3.0496615     0.4957956     0.1804532
N           3.9775380    -0.4080473     0.4813828
N           5.0183106     0.3447637     0.9315664
H           5.8592223    -0.1233341     1.2289881
C           4.7573144     1.6758969     0.9176346
H           5.4868736     2.4026994     1.2466536
13
268_C4H6N2O_0-4-7-8 (15,) energy =    -340.7226820
C           1.5883053    -1.2267498    -0.4713089
H           0.5837307    -1.2971522    -0.8927549
H           1.6038645    -1.6430941     0.5423991
H           2.2964877    -1.7868921    -1.0915499
O           1.9059452     0.1648049    -0.4558849
C           3.4682974     1.8106021     0.4571738
H           2.8872700     2.7135432     0.3507306
C           3.0870454     0.4892380     0.1126647
N           4.0389528    -0.4040160     0.3672180
N           5.0453098     0.3465048     0.8909128
H           5.8902517    -0.1174014     1.1837259
C           4.7454202     1.6678192     0.9589153
H           5.4456567     2.3914961     1.3522260
13
268_C4H6N2O_0-4-7-8 (30,) energy =    -340.7212591
C           1.5651625    -1.2114296    -0.4572702
H           0.5893033    -1.2784901    -0.9423871
H           1.4784805    -1.4858341     0.6007903
H           2.2711726    -1.8931614    -0.9430126
O           1.9781152     0.1487199    -0.5975492
C           3.4436024     1.7887924     0.4786321
H           2.8253652     2.6715462     0.4249758
C           3.1251822     0.4802274     0.0376191
N           4.1134256    -0.3863123     0.2439126
N           5.0754720     0.3660323     0.8389907
H           5.9333763    -0.0818146     1.1194784
C           4.7188153     1.6661975     0.9914972
H           5.3813738     2.3889285     1.4468040
13
268_C4H6N2O_0-4-7-8 (45,) energy =    -340.7194910
C           1.5404651    -1.1814535    -0.4382323
H           0.6170415    -1.2710525    -1.0142868
H           1.3221526    -1.2871674     0.6318000
H           2.2431159    -1.9651472    -0.7397003
O           2.0583779     0.1194475    -0.7249186
C           3.4184858     1.7508651     0.5061617
H           2.7544408     2.6014648     0.5100901
C           3.1740814     0.4661352    -0.0375080
N           4.2062541    -0.3599504     0.1166226
N           5.1177376     0.3914871     0.7828544
H           5.9976085    -0.0293209     1.0367786
C           4.6933823     1.6571867     1.0272800
H           5.3132728     2.3759397     1.5446515
13
268_C4H6N2O_0-4-7-8 (60,) energy =    -340.7179622
C           1.5160659    -1.1437630    -0.4150848
H           0.6655382    -1.2957564    -1.0832108
H           1.1595689    -1.0566930     0.6197387
H           2.2018721    -1.9942384    -0.4909575
O           2.1440861     0.0678261    -0.8407003
C           3.3942888     1.6865499     0.5348088
H           2.6828047     2.4958217     0.5949552
C           3.2301642     0.4385914    -0.1136231
N           4.3081859    -0.3359501    -0.0115650
N           5.1666282     0.4098736     0.7234065
H           6.0741350     0.0280445     0.9397886
C           4.6691224     1.6270535     1.0617710
H           5.2441068     2.3370077     1.6396005
13
268_C4H6N2O_0-4-7-8 (75,) energy =    -340.7169010
C           1.4959352    -1.1007906    -0.3874367
H           0.6935178    -1.3131190    -1.0975432
H           1.0622008    -0.8338786     0.5857779
H           2.1283187    -1.9883069    -0.2703547
O           2.2374018    -0.0088114    -0.9350566
C           3.3627987     1.6066433     0.5660324
H           2.5999032     2.3625574     0.6740115
C           3.2877237     0.4011662    -0.1736948
N           4.4138053    -0.3062629    -0.1116043
N           5.2154175     0.4407511     0.6816299
H           6.1498864     0.1124141     0.8699397
C           4.6354819     1.5952671     1.1010816
H           5.1598373     2.2999384     1.7312014
13
268_C4H6N2O_0-4-7-8 (90,) energy =    -340.7162541
C           1.4710564    -1.0507276    -0.3700659
H           0.7062230    -1.3152902    -1.1037753
H           0.9905867    -0.6169184     0.5174799
H           2.0249632    -1.9507509    -0.0761416
O           2.3309279    -0.1054327    -1.0077437
C           3.3345814     1.5114320     0.5904535
H           2.5220829     2.2063234     0.7401189
C           3.3454362     0.3507489    -0.2231215
N           4.5184573    -0.2771550    -0.1991979
N           5.2669489     0.4791779     0.6357042
H           6.2243713     0.2103442     0.8018824
C           4.6052495     1.5591014     1.1274104
H           5.0794702     2.2612614     1.7988253
13
268_C4H6N2O_0-4-7-8 (105,) energy =    -340.7159682
C           1.4438091    -0.9984546    -0.3618889
H           0.7222158    -1.3166710    -1.1176651
H           0.9265620    -0.4121629     0.4096087
H           1.9003611    -1.8810530     0.1038421
O           2.4227473    -0.2163960    -1.0449004
C           3.3149379     1.4063454     0.6237119
H           2.4565337     2.0314925     0.8187383
C           3.4014394     0.2879508    -0.2448878
N           4.6176143    -0.2503570    -0.2616772
N           5.3220472     0.5267728     0.5931776
H           6.3004245     0.3270136     0.7320096
C           4.5869394     1.5267803     1.1451276
H           5.0168562     2.2331821     1.8414906
13
268_C4H6N2O_0-4-7-8 (120,) energy =    -340.7160302
C           1.4132686    -0.9473757    -0.3594657
H           0.7475808    -1.3469139    -1.1276551
H           0.8606907    -0.2223305     0.2529059
H           1.7643339    -1.7652918     0.2827306
O           2.4995266    -0.3361754    -1.0512171
C           3.2989494     1.2953531     0.6666199
H           2.4032292     1.8449128     0.9141460
C           3.4469363     0.2222759    -0.2512127
N           4.6995821    -0.2174971    -0.3211874
N           5.3681539     0.5838425     0.5418836
H           6.3615909     0.4523130     0.6509965
C           4.5732247     1.4959397     1.1571849
H           4.9655706     2.2059936     1.8718238
13
268_C4H6N2O_0-4-7-8 (135,) energy =    -340.7164984
C           1.3868353    -0.8920686    -0.3654095
H           0.7972103    -1.4309515    -1.1100938
H           0.7947984    -0.0480091     0.0132905
H           1.6282256    -1.5640750     0.4679442
O           2.5652504    -0.4552198    -1.0339970
C           3.2929363     1.1784677     0.7220136
H           2.3707335     1.6448799     1.0337220
C           3.4868047     0.1580346    -0.2468931
N           4.7654608    -0.1794054    -0.3817694
N           5.4051552     0.6421697     0.4856631
H           6.4084531     0.5779938     0.5576816
C           4.5680447     1.4598662     1.1707828
H           4.9315889     2.1680302     1.9023066
13
268_C4H6N2O_0-4-7-8 (150,) energy =    -340.7173650
C           1.3603998    -0.8403243    -0.3783244
H           0.8149858    -1.4917997    -1.0641017
H           0.7833027     0.0830702    -0.2316684
H           1.4828483    -1.3446705     0.5888200
O           2.6162766    -0.5840278    -0.9917207
C           3.2847647     1.0624826     0.7802556
H           2.3458312     1.4448307     1.1501557
C           3.5132006     0.0914464    -0.2311008
N           4.8066690    -0.1433017    -0.4297315
N           5.4192324     0.6994677     0.4381837
H           6.4265902     0.7061854     0.4698066
C           4.5546360     1.4277161     1.1845542
H           4.8941821     2.1372520     1.9261652
13
268_C4H6N2O_0-4-7-8 (165,) energy =    -340.7182186
C           1.3608884    -0.7975597    -0.3893059
H           0.8173219    -1.4912221    -1.0334948
H           0.8601920     0.1802598    -0.4129703
H           1.3591994    -1.1766784     0.6412849
O           2.6778164    -0.7230672    -0.9124000
C           3.3060820     0.9635260     0.8383377
H           2.3625729     1.2729166     1.2604373
C           3.5542126     0.0188902    -0.1932094
N           4.8500919    -0.1201411    -0.4571901
N           5.4427886     0.7522447     0.3956659
H           6.4475448     0.8298208     0.3806515
C           4.5661009     1.4131892     1.1874686
H           4.8895387     2.1368931     1.9224888
13
268_C4H6N2O_0-4-7-8 (180,) energy =    -340.7185668
C           1.3519574    -0.7641118    -0.4126870
H           0.8058618    -1.4697856    -1.0412873
H           0.9530188     0.2470975    -0.5714820
H           1.2195096    -1.0403692     0.6423254
O           2.7110615    -0.8548807    -0.8073564
C           3.3161883     0.8820931     0.9022915
H           2.3784304     1.1322139     1.3734067
C           3.5709186    -0.0483343    -0.1405698
N           4.8564925    -0.0995157    -0.4771026
N           5.4368550     0.8029971     0.3526195
H           6.4324261     0.9444067     0.2847232
C           4.5621715     1.4096004     1.1883116
H           4.8764932     2.1528314     1.9076060
