19
173_C5H10N2O2_2-3-5-10 (-165,) energy =    -456.4744261
N           1.1053267    -1.3094758    -1.1543270
H           1.2805939    -0.7443074    -1.9752417
C           2.0497850    -1.2413606    -0.1465534
N           3.3079927    -0.8325911    -0.5871781
H           3.5120207    -0.9968129    -1.5666937
C           4.4365397    -0.9330380     0.3053543
H           4.0754747    -0.7207339     1.3110245
C           5.3696047    -2.1706320     0.2568031
H           5.2146771    -2.8089985    -0.6265772
H           5.4188231    -2.7990550     1.1532214
C           5.7096436    -0.1546681    -0.0850876
H           6.0068205     0.6824017     0.5575365
H           5.7183588     0.1808845    -1.1341931
O           6.5327346    -1.3225972     0.1182201
O           1.8084010    -1.5131924     1.0227994
C          -0.2927945    -1.5146626    -0.8055410
H          -0.8271977    -1.9104119    -1.6740565
H          -0.7881800    -0.5932766    -0.4687325
H          -0.3394887    -2.2406949     0.0067607
19
173_C5H10N2O2_2-3-5-10 (-150,) energy =    -456.4745774
N           1.0926602    -1.3774886    -1.1386050
H           1.3131246    -0.9392689    -2.0236234
C           2.0354562    -1.2543303    -0.1339832
N           3.3209005    -1.0018556    -0.6031016
H           3.5115687    -1.2247374    -1.5725107
C           4.4463094    -1.0275549     0.2938660
H           4.0512199    -0.8971404     1.3009304
C           5.4907036    -2.1683868     0.1981909
H           5.4138423    -2.7627804    -0.7259846
H           5.5789935    -2.8463522     1.0550309
C           5.6495379    -0.1139722    -0.0272437
H           5.8557256     0.7125338     0.6629612
H           5.6477702     0.2712030    -1.0587123
O           6.5723533    -1.2124870     0.1413199
O           1.7667494    -1.3628666     1.0561577
C          -0.3185700    -1.4309071    -0.7866199
H          -0.8773264    -1.8938217    -1.6052143
H          -0.7443664    -0.4394863    -0.5775229
H          -0.4240817    -2.0412447     0.1107845
19
173_C5H10N2O2_2-3-5-10 (-135,) energy =    -456.4743862
N           1.0782109    -1.4313845    -1.1272670
H           1.3333743    -1.1145901    -2.0536681
C           2.0243855    -1.2714440    -0.1304526
N           3.3259715    -1.1794123    -0.6039744
H           3.5082800    -1.4378156    -1.5649316
C           4.4486498    -1.1189447     0.2913934
H           4.0413735    -1.0622422     1.3008518
C           5.5921852    -2.1516910     0.1491334
H           5.5723185    -2.7065358    -0.8026491
H           5.7389923    -2.8606639     0.9724015
C           5.5648580    -0.0823663     0.0222584
H           5.6937065     0.7229799     0.7549353
H           5.5309905     0.3501217    -0.9892398
O           6.5828114    -1.1017234     0.1448674
O           1.7423116    -1.2329231     1.0613745
C          -0.3340194    -1.3400818    -0.7878626
H          -0.9234368    -1.8491474    -1.5560445
H          -0.6853443    -0.3027074    -0.6954725
H          -0.4875391    -1.8366839     0.1706251
19
173_C5H10N2O2_2-3-5-10 (-120,) energy =    -456.4744939
N           0.9982312    -1.5127523    -0.7627586
H           0.7645992    -1.9390731     0.1245949
C           2.2279495    -0.8843466    -0.8469282
N           3.1519325    -1.3379325     0.0859748
H           2.9588513    -2.2103307     0.5611530
C           4.5194037    -0.8939260     0.0587737
H           4.5689190    -0.0701188    -0.6529214
C           5.2242565    -0.5958127     1.4027041
H           4.6933952    -1.0015609     2.2774724
H           5.5091675     0.4434020     1.6050340
C           5.6558704    -1.9302672    -0.1228410
H           6.2549326    -1.8693072    -1.0390164
H           5.3315125    -2.9727571     0.0253198
O           6.3569279    -1.4106722     1.0270681
O           2.4837708    -0.0182203    -1.6749454
C          -0.1203576    -0.9962247    -1.5372088
H          -0.6111110    -0.1374724    -1.0578206
H          -0.8572215    -1.7913649    -1.6842716
H           0.2581915    -0.6728151    -2.5072021
19
173_C5H10N2O2_2-3-5-10 (-105,) energy =    -456.4745738
N           0.9803685    -1.4900513    -0.6976366
H           0.7104868    -1.7921064     0.2296645
C           2.2175073    -0.8828380    -0.8150050
N           3.1000998    -1.2136884     0.2099606
H           2.9048855    -2.0650265     0.7234870
C           4.4852797    -0.8283606     0.1265107
H           4.5334056     0.0465577    -0.5210425
C           5.2671098    -0.6717859     1.4482282
H           4.7666953    -1.1308676     2.3150127
H           5.6004513     0.3363543     1.7213257
C           5.5717726    -1.8820839    -0.2075926
H           6.1273623    -1.7545500    -1.1437855
H           5.2180265    -2.9224676    -0.1353894
O           6.3468774    -1.4900808     0.9476072
O           2.5117956    -0.1277486    -1.7332856
C          -0.1035511    -1.0709469    -1.5738823
H          -0.5903471    -0.1447240    -1.2376771
H          -0.8515205    -1.8672302    -1.6296700
H           0.3095405    -0.8954508    -2.5676312
19
173_C5H10N2O2_2-3-5-10 (-90,) energy =    -456.4743125
N           0.9724118    -1.4542202    -0.6432094
H           0.6632744    -1.6032394     0.3087793
C           2.2270418    -0.8949332    -0.8019212
N           3.0665569    -1.0843381     0.2954874
H           2.8633929    -1.8921889     0.8739241
C           4.4654598    -0.7526362     0.1699523
H           4.5317503     0.1743781    -0.3988939
C           5.3011196    -0.7546468     1.4647715
H           4.8107664    -1.2639581     2.3096230
H           5.6938549     0.2082627     1.8119042
C           5.4896638    -1.8122404    -0.3100670
H           6.0208664    -1.6071435    -1.2461272
H           5.0925508    -2.8382625    -0.3331458
O           6.3184830    -1.5751811     0.8528643
O           2.5739709    -0.2892231    -1.8081039
C          -0.0687610    -1.1529595    -1.6145933
H          -0.5430656    -0.1766423    -1.4424513
H          -0.8344614    -1.9332981    -1.5776840
H           0.3835844    -1.1396327    -2.6067343
19
173_C5H10N2O2_2-3-5-10 (-75,) energy =    -456.4738565
N           0.9771987    -1.4088129    -0.5930939
H           0.6259110    -1.3913361     0.3557410
C           2.2559428    -0.9189894    -0.7807360
N           3.0470606    -0.9575626     0.3677017
H           2.8276820    -1.7009920     1.0223429
C           4.4581104    -0.6758822     0.2175172
H           4.5606298     0.2998047    -0.2588489
C           5.3284061    -0.8485143     1.4757200
H           4.8342954    -1.4059167     2.2881225
H           5.7861552     0.0543868     1.8966184
C           5.4094776    -1.7276342    -0.4024551
H           5.9297819    -1.4447091    -1.3234314
H           4.9579683    -2.7223751    -0.5264024
O           6.2768725    -1.6634559     0.7580042
O           2.6687246    -0.4899589    -1.8513053
C          -0.0122277    -1.2423132    -1.6473489
H          -0.4615154    -0.2394150    -1.6555622
H          -0.8036483    -1.9870026    -1.5220976
H           0.4814695    -1.4001258    -2.6068402
19
173_C5H10N2O2_2-3-5-10 (-60,) energy =    -456.4730700
N           0.9813632    -1.3607102    -0.5275902
H           0.5968550    -1.1953809     0.3935974
C           2.2785988    -0.9330282    -0.7342677
N           3.0306735    -0.8192234     0.4344279
H           2.7834632    -1.4714884     1.1711334
C           4.4554380    -0.5940418     0.2769132
H           4.6113597     0.4199188    -0.0981981
C           5.3441519    -0.9425076     1.4838139
H           4.8381288    -1.5510961     2.2516458
H           5.8636846    -0.1135929     1.9787668
C           5.3260630    -1.6246118    -0.4757889
H           5.8389016    -1.2741664    -1.3765504
H           4.8160690    -2.5734481    -0.6882422
O           6.2249394    -1.7308951     0.6609844
O           2.7422931    -0.6758891    -1.8393048
C           0.0367020    -1.3370626    -1.6343584
H          -0.3849467    -0.3381015    -1.8132104
H          -0.7784916    -2.0371976    -1.4298064
H           0.5610857    -1.6499989    -2.5379128
19
173_C5H10N2O2_2-3-5-10 (-45,) energy =    -456.4715655
N           0.9895800    -1.3069667    -0.5066279
H           0.5839835    -1.0075421     0.3708430
C           2.3015557    -0.9324948    -0.7318270
N           3.0227902    -0.6698140     0.4297019
H           2.7114365    -1.1739426     1.2527190
C           4.4658349    -0.5298642     0.3156100
H           4.7097364     0.5014678     0.0429508
C           5.3231680    -1.0396154     1.4860864
H           4.7856882    -1.7295346     2.1587568
H           5.8500631    -0.2923300     2.0907363
C           5.2840288    -1.5313521    -0.5259547
H           5.7894963    -1.1389388    -1.4122282
H           4.7430179    -2.4491199    -0.7841723
O           6.2019636    -1.7381806     0.5856604
O           2.7965181    -0.8367534    -1.8493077
C           0.0743574    -1.4014912    -1.6346710
H          -0.3111208    -0.4231883    -1.9542300
H          -0.7670868    -2.0459590    -1.3642370
H           0.6110493    -1.8447997    -2.4740695
19
173_C5H10N2O2_2-3-5-10 (-30,) energy =    -456.4694625
N           0.9303660    -0.9719576    -0.5687939
H           0.6330222    -1.0482252     0.3953831
C           2.2958400    -1.0446916    -0.7978178
N           3.0567411    -0.6287382     0.2822483
H           2.6009177    -0.0423753     0.9689266
C           4.5033026    -0.6020228     0.2708642
H           4.8747746     0.4139649     0.0797257
C           5.2832794    -1.2460347     1.4355532
H           4.6883989    -1.9966470     1.9783337
H           5.7858710    -0.5828787     2.1496566
C           5.2763941    -1.6182774    -0.5904027
H           5.7714989    -1.2441051    -1.4898670
H           4.7048023    -2.5191384    -0.8288801
O           6.2057259    -1.8480228     0.5056830
O           2.7730371    -1.4143659    -1.8650731
C           0.0206370    -1.5297617    -1.5588347
H          -0.9791214    -1.1152202    -1.4003652
H          -0.0352368    -2.6267003    -1.5196214
H           0.3736244    -1.2452577    -2.5506892
19
173_C5H10N2O2_2-3-5-10 (-15,) energy =    -456.4677748
N           0.9345624    -0.9344677    -0.5896916
H           0.6409558    -0.8951054     0.3777534
C           2.2974134    -1.0637832    -0.8175697
N           3.0716860    -0.5251220     0.1947498
H           2.6130601     0.0939346     0.8492822
C           4.5149294    -0.5750566     0.2702817
H           4.9284194     0.4383266     0.1857647
C           5.2130456    -1.3254068     1.4259209
H           4.5827731    -2.1213358     1.8522709
H           5.6643817    -0.7354567     2.2324767
C           5.3252690    -1.5405748    -0.6177330
H           5.8666146    -1.1132576    -1.4663271
H           4.7640093    -2.4204733    -0.9389807
O           6.1971349    -1.8411675     0.5074369
O           2.7521532    -1.5670689    -1.8387953
C           0.0050276    -1.5766975    -1.5073034
H          -0.9832930    -1.1221496    -1.3923861
H          -0.0774817    -2.6607055    -1.3455875
H           0.3582850    -1.4138103    -2.5260780
19
173_C5H10N2O2_2-3-5-10 (0,) energy =    -456.4668341
N           0.9503384    -0.8683500    -0.6223852
H           0.6393671    -0.6316047     0.3109790
C           2.3027988    -1.1473700    -0.7720823
N           3.0904914    -0.5000105     0.1661047
H           2.6493154     0.2565753     0.6705033
C           4.5309667    -0.5674315     0.2968028
H           4.9211954     0.4554438     0.3488416
C           5.1831199    -1.4271497     1.4049618
H           4.5492782    -2.2750805     1.7061835
H           5.5741782    -0.9207416     2.2958201
C           5.4215886    -1.4138422    -0.6417429
H           6.0067772    -0.8748950    -1.3942164
H           4.9021538    -2.2564263    -1.0995282
O           6.2290151    -1.8226793     0.4949315
O           2.7293759    -1.8640578    -1.6695637
C          -0.0096739    -1.5950698    -1.4403978
H          -0.9612452    -1.0556051    -1.4387091
H          -0.1792073    -2.6234859    -1.0915738
H           0.3726220    -1.6440061    -2.4604900
19
173_C5H10N2O2_2-3-5-10 (15,) energy =    -456.4677355
N           0.9885037    -0.7943970    -0.7358088
H           0.6341883    -0.2365309     0.0307632
C           2.2890296    -1.2623882    -0.6130140
N           3.0636491    -0.4986497     0.2533574
H           2.6864332     0.4201197     0.4452281
C           4.5131933    -0.5674098     0.3588785
H           4.8663338     0.4422947     0.5847286
C           5.1480002    -1.5924099     1.3265345
H           4.4996674    -2.4641707     1.4929573
H           5.5366473    -1.2301711     2.2864108
C           5.4393323    -1.2449101    -0.6881257
H           6.0617528    -0.5790349    -1.2980755
H           4.9296991    -1.9775179    -1.3152143
O           6.1979385    -1.8677467     0.3770274
O           2.6919251    -2.2525680    -1.2106389
C           0.0047789    -1.6256707    -1.4150829
H          -0.8414386    -1.0029208    -1.7191042
H          -0.3629390    -2.4513530    -0.7897357
H           0.4713930    -2.0548970    -2.3021464
19
173_C5H10N2O2_2-3-5-10 (30,) energy =    -456.4700473
N           1.0278107    -0.7905109    -0.7899936
H           0.6674438    -0.0889016    -0.1558594
C           2.2980956    -1.2752085    -0.5240073
N           3.0720523    -0.4141997     0.2472998
H           2.7501961     0.5453206     0.2584305
C           4.5126529    -0.5569822     0.3811027
H           4.8911558     0.4058403     0.7325504
C           5.0678154    -1.7181084     1.2366804
H           4.3663191    -2.5573634     1.3159046
H           5.4746099    -1.4741506     2.2260521
C           5.4320186    -1.1529054    -0.7214395
H           6.1215332    -0.4562886    -1.2149578
H           4.9011637    -1.7557544    -1.4613900
O           6.1057587    -1.9681923     0.2646566
O           2.6919007    -2.3641013    -0.9252554
C           0.0382805    -1.6863982    -1.3715997
H          -0.7575975    -1.0928252    -1.8304289
H          -0.4036023    -2.3712808    -0.6343672
H           0.5279554    -2.2855288    -2.1398431
19
173_C5H10N2O2_2-3-5-10 (45,) energy =    -456.4713414
N           1.0267681    -0.8035117    -0.8216584
H           0.6818377    -0.0500776    -0.2408681
C           2.2977542    -1.2745809    -0.5367978
N           3.0974332    -0.3526675     0.1252293
H           2.8094817     0.6144897     0.0596795
C           4.5124559    -0.5664593     0.3522210
H           4.8959097     0.3552417     0.7974182
C           4.9979693    -1.7994503     1.1476039
H           4.2860751    -2.6307490     1.1354382
H           5.3632486    -1.6260527     2.1674293
C           5.4748200    -1.0931750    -0.7443991
H           6.2022197    -0.3819283    -1.1557353
H           4.9656341    -1.6277489    -1.5520747
O           6.0799692    -1.9970868     0.2083465
O           2.6789163    -2.3975653    -0.8478268
C           0.0232618    -1.7322236    -1.3211267
H          -0.7649512    -1.1710593    -1.8313216
H          -0.4276801    -2.3420546    -0.5257341
H           0.5036901    -2.4047666    -2.0323627
19
173_C5H10N2O2_2-3-5-10 (60,) energy =    -456.4713148
N           1.1131382    -0.6606542    -0.2025468
H           0.9369024     0.3355664    -0.2246546
C           2.4367188    -1.0532204    -0.0906101
N           3.2562910    -0.0898589     0.4829003
H           2.7886194     0.6251035     1.0240442
C           4.6268288    -0.3619581     0.8659334
H           4.9814566     0.5300619     1.3890892
C           5.0632054    -1.6464657     1.6171518
H           4.3628056    -2.4794692     1.5046638
H           5.3599755    -1.5346732     2.6675826
C           5.6592926    -0.8153313    -0.1894944
H           6.4059254    -0.0785726    -0.5106360
H           5.2052975    -1.2996935    -1.0600224
O           6.2077452    -1.7771382     0.7418211
O           2.8417862    -2.1499542    -0.4594593
C           0.1931602    -1.4862920    -0.9713051
H           0.2879892    -1.3353299    -2.0557841
H          -0.8331490    -1.2606755    -0.6675736
H           0.4102095    -2.5327644    -0.7550042
19
173_C5H10N2O2_2-3-5-10 (75,) energy =    -456.4699321
N           1.1272139    -0.6303083    -0.2147435
H           0.9739340     0.3661547    -0.3021128
C           2.4418291    -1.0500999    -0.1002664
N           3.3058072    -0.0601078     0.3588116
H           2.8524976     0.7087214     0.8360272
C           4.6385575    -0.3595901     0.8530950
H           4.9347887     0.5009045     1.4595076
C           5.0520003    -1.6733428     1.5649233
H           4.4057868    -2.5243349     1.3379503
H           5.2461555    -1.6115889     2.6428033
C           5.7684880    -0.7154408    -0.1330310
H           6.5075882     0.0604087    -0.3668271
H           5.3995331    -1.1752011    -1.0582769
O           6.2796084    -1.7013006     0.7947246
O           2.8060386    -2.1849375    -0.3847788
C           0.1694826    -1.4831754    -0.9038789
H           0.2508425    -1.4192648    -1.9980037
H          -0.8438970    -1.2016420    -0.6036517
H           0.3573482    -2.5162184    -0.6097775
19
173_C5H10N2O2_2-3-5-10 (90,) energy =    -456.4676636
N           1.1086171    -0.6068051    -0.2680974
H           1.0542026     0.3689841    -0.5311826
C           2.3782682    -1.1189294    -0.0432117
N           3.3096781    -0.1424152     0.2916420
H           2.9059987     0.7313612     0.6022214
C           4.6258954    -0.4106840     0.8467245
H           4.8394400     0.4041138     1.5451590
C           5.0776738    -1.7537576     1.4728992
H           4.5182856    -2.6192191     1.1149160
H           5.1777382    -1.7805280     2.5643776
C           5.8399346    -0.6161183    -0.0823903
H           6.5332606     0.2221184    -0.2223288
H           5.5608737    -1.0364063    -1.0589495
O           6.3640415    -1.6223091     0.8127941
O           2.6347758    -2.3128067    -0.1376149
C           0.0940939    -1.4731945    -0.8510408
H           0.2111350    -1.5988944    -1.9366605
H          -0.8957830    -1.0563492    -0.6441076
H           0.1741587    -2.4560835    -0.3859341
19
173_C5H10N2O2_2-3-5-10 (105,) energy =    -456.4668959
N           1.1567392    -0.5863561    -0.4039805
H           1.2970390     0.2270840    -0.9892432
C           2.2935049    -1.1356345     0.1752991
N           3.2947742    -0.2020847     0.3828365
H           3.0262306     0.7696448     0.3104702
C           4.6178797    -0.4405554     0.9186896
H           4.7896570     0.2433994     1.7579738
C           5.1153565    -1.8572407     1.2867950
H           4.6113191    -2.6549934     0.7396763
H           5.1727956    -2.1076185     2.3509626
C           5.8522587    -0.4454942    -0.0146951
H           6.5085286     0.4332624    -0.0185918
H           5.5930634    -0.7222448    -1.0482294
O           6.4171534    -1.5483102     0.7206843
O           2.3609256    -2.3157366     0.4984708
C           0.0787137    -1.4760771    -0.8104391
H           0.2972073    -2.0177103    -1.7415391
H          -0.8361947    -0.8914229    -0.9432872
H          -0.0778939    -2.2121550    -0.0212547
19
173_C5H10N2O2_2-3-5-10 (120,) energy =    -456.4682519
N           1.1852072    -0.6095127    -0.4792643
H           1.3910632     0.0672283    -1.2027083
C           2.2685152    -1.0898361     0.2426586
N           3.3170286    -0.1898329     0.3150076
H           3.1179701     0.7733031     0.0803885
C           4.5971474    -0.4490735     0.9364422
H           4.7072255     0.1310152     1.8613227
C           5.0615147    -1.9067240     1.1510365
H           4.5775869    -2.6229036     0.4833353
H           5.0580403    -2.2927496     2.1740683
C           5.8833557    -0.3612695     0.0810330
H           6.5491499     0.4974639     0.2298750
H           5.6783145    -0.4924047    -0.9927988
O           6.3948473    -1.5601328     0.6906122
O           2.2653308    -2.1864090     0.7911081
C           0.0690563    -1.5040941    -0.7485742
H           0.2817439    -2.2265839    -1.5490457
H          -0.8064699    -0.9102211    -1.0266207
H          -0.1518219    -2.0641122     0.1607677
19
173_C5H10N2O2_2-3-5-10 (135,) energy =    -456.4702480
N           1.1718618    -1.0674681    -1.0909979
H           1.1089136    -0.1440387    -1.5001718
C           2.1827272    -1.2623673    -0.1655740
N           3.2448076    -0.3764905    -0.2945626
H           3.3531433     0.0473557    -1.2084808
C           4.4924096    -0.6401936     0.4074245
H           4.5107887    -0.1105630     1.3651726
C           4.9913633    -2.0971954     0.5531640
H           4.4894814    -2.8070930    -0.1117180
H           5.0375175    -2.5091110     1.5648284
C           5.7981375    -0.4545098    -0.3932413
H           6.4531293     0.3787140    -0.1118354
H           5.6349105    -0.4310467    -1.4841714
O           6.3031103    -1.7218910     0.0519921
O           2.1488006    -2.1357193     0.6944882
C          -0.0891216    -1.7747150    -0.9212115
H          -0.6133377    -1.8128905    -1.8805263
H          -0.7440579    -1.3068080    -0.1727968
H           0.1305928    -2.7905697    -0.5914161
19
173_C5H10N2O2_2-3-5-10 (150,) energy =    -456.4722480
N           1.1501472    -1.1241990    -1.1082562
H           1.1332076    -0.2595502    -1.6336167
C           2.1529017    -1.2472882    -0.1649713
N           3.2636263    -0.4436889    -0.4092453
H           3.4406444    -0.2344746    -1.3855730
C           4.4564977    -0.6926886     0.3835594
H           4.3455979    -0.2325261     1.3686215
C           5.0215223    -2.1299461     0.4694276
H           4.5587509    -2.8354909    -0.2308643
H           5.0713983    -2.5810502     1.4648596
C           5.8017987    -0.3743195    -0.2985084
H           6.4055833     0.4304464     0.1378195
H           5.7189752    -0.2040751    -1.3851658
O           6.3225577    -1.6778882     0.0081528
O           2.0850033    -1.9949183     0.8042976
C          -0.1400760    -1.7512854    -0.8622901
H          -0.6613110    -1.8916447    -1.8136837
H          -0.7778227    -1.1637162    -0.1871475
H           0.0350821    -2.7240785    -0.4016176
19
173_C5H10N2O2_2-3-5-10 (165,) energy =    -456.4734294
N           1.1397118    -1.1796873    -1.1334462
H           1.1821622    -0.3859510    -1.7595498
C           2.1281211    -1.2525715    -0.1707567
N           3.2917918    -0.5584312    -0.5004589
H           3.5001899    -0.5071728    -1.4919433
C           4.4450814    -0.7652025     0.3530307
H           4.2200362    -0.3781506     1.3482479
C           5.1280083    -2.1528539     0.4025980
H           4.7647960    -2.8577652    -0.3575420
H           5.1635306    -2.6513228     1.3765449
C           5.7964772    -0.2899443    -0.2138888
H           6.3011007     0.5266635     0.3159993
H           5.7702339    -0.0486260    -1.2893062
O           6.4059715    -1.5692807     0.0401832
O           2.0086304    -1.8694327     0.8813800
C          -0.1885647    -1.6927327    -0.8328492
H          -0.7106388    -1.9163346    -1.7677447
H          -0.7936206    -0.9895501    -0.2436322
H          -0.0774554    -2.6107153    -0.2546727
19
173_C5H10N2O2_2-3-5-10 (180,) energy =    -456.4740454
N           1.1199865    -1.2377365    -1.1550348
H           1.2336396    -0.5453463    -1.8841721
C           2.0822996    -1.2462266    -0.1627625
N           3.2992733    -0.6890507    -0.5568830
H           3.5119521    -0.7604887    -1.5462293
C           4.4350848    -0.8475955     0.3229884
H           4.1309848    -0.5448160     1.3249062
C           5.2463425    -2.1679076     0.3281582
H           4.9959231    -2.8479570    -0.4992415
H           5.2760541    -2.7315009     1.2668789
C           5.7587856    -0.2169583    -0.1509248
H           6.1556402     0.6196509     0.4360548
H           5.7603827     0.0658136    -1.2160238
O           6.4773542    -1.4443557     0.0853388
O           1.8941650    -1.6980331     0.9599899
C          -0.2494938    -1.6007872    -0.8221388
H          -0.7734349    -1.9079891    -1.7318998
H          -0.8051235    -0.7795981    -0.3481587
H          -0.2210995    -2.4377604    -0.1236012
