19
173_C5H10N2O2_15-0-2-3 (-165,) energy =    -456.4712147
N           1.0157928    -0.7667647    -0.8853500
H           0.6821720     0.0092308    -0.3270298
C           2.2785487    -1.2449917    -0.5683321
N           3.0688231    -0.3302062     0.1124339
H           2.7820269     0.6382300     0.0651807
C           4.4754017    -0.5542417     0.3764343
H           4.8480190     0.3565712     0.8523524
C           4.9397134    -1.8052631     1.1559933
H           4.2296418    -2.6362845     1.1061202
H           5.2782525    -1.6541845     2.1885059
C           5.4659279    -1.0551139    -0.7063076
H           6.2033222    -0.3349516    -1.0826710
H           4.9780244    -1.5710750    -1.5392938
O           6.0464460    -1.9808933     0.2408918
O           2.6574033    -2.3733179    -0.8619495
C          -0.0091782    -1.7180336    -1.2947708
H          -0.8023442    -1.1862339    -1.8280530
H          -0.4484141    -2.2622614    -0.4468630
H           0.4489196    -2.4455773    -1.9652893
19
173_C5H10N2O2_15-0-2-3 (-150,) energy =    -456.4694850
N           1.0626462    -0.7601037    -1.0450648
H           0.7719196     0.0814098    -0.5600462
C           2.3093063    -1.2503928    -0.6669863
N           3.0630642    -0.3680047     0.0918507
H           2.7597300     0.5965092     0.1087214
C           4.4684139    -0.5832749     0.3756385
H           4.8169505     0.3095527     0.9011754
C           4.9378922    -1.8628054     1.1047417
H           4.2418130    -2.7003778     1.0022752
H           5.2561369    -1.7546599     2.1489927
C           5.4852864    -1.0180965    -0.7101839
H           6.2169883    -0.2700873    -1.0403431
H           5.0203319    -1.5019041    -1.5753555
O           6.0637237    -1.9782147     0.2027502
O           2.6917066    -2.3787720    -0.9530669
C          -0.0209753    -1.7232564    -1.2247771
H          -0.8226862    -1.2618467    -1.8082574
H          -0.4311530    -2.0820733    -0.2700632
H           0.3733601    -2.5782235    -1.7746132
19
173_C5H10N2O2_15-0-2-3 (-135,) energy =    -456.4660796
N           1.0998108    -0.7789189    -1.1988505
H           0.8544070     0.1265866    -0.8114779
C           2.3416516    -1.2582018    -0.7724607
N           3.0410680    -0.4017220     0.0608242
H           2.6896336     0.5399682     0.1667383
C           4.4404518    -0.5919901     0.3911552
H           4.7464258     0.2889254     0.9612090
C           4.9159333    -1.8883488     1.0866968
H           4.2418361    -2.7353247     0.9294540
H           5.1987300    -1.8136441     2.1439885
C           5.5030146    -0.9607298    -0.6744322
H           6.2275271    -0.1838398    -0.9488672
H           5.0791464    -1.4182380    -1.5743546
O           6.0722372    -1.9447150     0.2180831
O           2.7480919    -2.3758565    -1.0650221
C          -0.0248309    -1.7150916    -1.1474020
H          -0.8536176    -1.3187804    -1.7406965
H          -0.3739851    -1.9020908    -0.1214464
H           0.3001455    -2.6604336    -1.5837330
19
173_C5H10N2O2_15-0-2-3 (-120,) energy =    -456.4615426
N           1.1261668    -0.8233039    -1.3493651
H           0.9313048     0.1326936    -1.0645174
C           2.3794746    -1.2786501    -0.8998536
N           3.0260830    -0.4397217    -0.0124156
H           2.6116772     0.4606485     0.1810515
C           4.4101783    -0.6093278     0.3846119
H           4.6652226     0.2555508     1.0021621
C           4.8884805    -1.9210854     1.0501120
H           4.2467822    -2.7780100     0.8254061
H           5.1184677    -1.8833790     2.1220199
C           5.5296718    -0.9078243    -0.6430722
H           6.2430006    -0.1017586    -0.8550380
H           5.1597242    -1.3414451    -1.5780534
O           6.0857793    -1.9100553     0.2371991
O           2.8213276    -2.3756681    -1.2127992
C          -0.0155856    -1.6945990    -1.0478212
H          -0.8917847    -1.3432839    -1.5998592
H          -0.2570383    -1.7284669     0.0251775
H           0.2256014    -2.7041502    -1.3850779
19
173_C5H10N2O2_15-0-2-3 (-105,) energy =    -456.4591812
N           1.0652087    -0.7204698    -1.3746445
H           0.9752285    -0.8237998    -2.3862008
C           2.4045490    -1.1790809    -1.0768643
N           2.9936817    -0.3915809    -0.1326740
H           2.4616732     0.4189977     0.1481772
C           4.3182378    -0.5919263     0.4109566
H           4.4794064     0.1964194     1.1498840
C           4.7524487    -1.9708721     0.9631051
H           4.1602560    -2.8037616     0.5695980
H           4.8602949    -2.0625787     2.0506236
C           5.5503475    -0.7531873    -0.5133238
H           6.2643462     0.0786135    -0.5461552
H           5.2921708    -1.0735950    -1.5278114
O           6.0294496    -1.8513028     0.2964588
O           2.9445953    -2.1287267    -1.6255952
C           0.0443532    -1.5991249    -0.7654961
H          -0.9459473    -1.2516703    -1.0734243
H           0.1050193    -1.5207921     0.3248015
H           0.1592295    -2.6557661    -1.0462808
19
173_C5H10N2O2_15-0-2-3 (-90,) energy =    -456.4613396
N           1.0919918    -0.8112112    -1.4839931
H           0.9695922    -1.0878959    -2.4577650
C           2.4307469    -1.2125992    -1.1598494
N           2.9611515    -0.4456865    -0.1603128
H           2.4126486     0.3539208     0.1199766
C           4.2742075    -0.6277105     0.4154894
H           4.3822219     0.1255247     1.1995169
C           4.7399500    -2.0171882     0.9116652
H           4.1934357    -2.8486611     0.4538773
H           4.8120049    -2.1632736     1.9963033
C           5.5432757    -0.6964218    -0.4704661
H           6.2270762     0.1602833    -0.4337856
H           5.3324369    -0.9725845    -1.5084110
O           6.0342093    -1.8176838     0.3004949
O           3.0384895    -2.0949996    -1.7503305
C           0.0594158    -1.5140835    -0.6948316
H          -0.9265356    -1.1793915    -1.0294636
H           0.1633329    -1.2505549     0.3621872
H           0.1150358    -2.6086049    -0.7868190
19
173_C5H10N2O2_15-0-2-3 (-75,) energy =    -456.4639528
N           1.1173205    -0.9280284    -1.5542942
H           0.9773134    -1.3399184    -2.4748613
C           2.4485110    -1.2727887    -1.1940371
N           2.9208057    -0.5292264    -0.1434039
H           2.3615472     0.2653021     0.1301192
C           4.2387730    -0.6690766     0.4330571
H           4.2996779     0.0474852     1.2557904
C           4.7722770    -2.0547323     0.8663110
H           4.2755700    -2.8901146     0.3617152
H           4.8408624    -2.2499653     1.9435052
C           5.5195712    -0.6258702    -0.4384165
H           6.1570417     0.2623165    -0.3493887
H           5.3349842    -0.8598691    -1.4915049
O           6.0605244    -1.7575042     0.2826096
O           3.1184635    -2.0912284    -1.8107532
C           0.0509343    -1.4048661    -0.6552553
H          -0.9146645    -1.0816229    -1.0541518
H           0.1691895    -0.9576157     0.3358713
H           0.0383422    -2.4986772    -0.5401740
19
173_C5H10N2O2_15-0-2-3 (-60,) energy =    -456.4664181
N           1.1326743    -1.0470528    -1.6050061
H           0.9769616    -1.5537536    -2.4722803
C           2.4535123    -1.3429226    -1.2124668
N           2.8733597    -0.6379867    -0.1093187
H           2.3016692     0.1448358     0.1725977
C           4.2062931    -0.7226080     0.4448788
H           4.2314624    -0.0455403     1.3024066
C           4.8264172    -2.0915583     0.8080233
H           4.3799941    -2.9298439     0.2633738
H           4.9127194    -2.3348806     1.8741555
C           5.4764756    -0.5576135    -0.4282188
H           6.0580906     0.3634230    -0.2984585
H           5.3011989    -0.7527643    -1.4906929
O           6.0909486    -1.6858451     0.2370913
O           3.1730898    -2.1029458    -1.8495884
C           0.0306058    -1.2860401    -0.6631902
H          -0.9109497    -1.0415267    -1.1623960
H           0.1184733    -0.6298352     0.2075406
H          -0.0189758    -2.3250030    -0.3059199
19
173_C5H10N2O2_15-0-2-3 (-45,) energy =    -456.4683789
N           1.1669634    -1.1709222    -1.5943399
H           0.9932859    -1.7482096    -2.4101681
C           2.4826514    -1.4140544    -1.1847905
N           2.8587668    -0.7450304    -0.0416493
H           2.2480644    -0.0121993     0.2880783
C           4.2004466    -0.7744991     0.4986849
H           4.1926036    -0.1348116     1.3848478
C           4.9042234    -2.1180423     0.7991584
H           4.5038211    -2.9571070     0.2215198
H           5.0146262    -2.4000913     1.8535357
C           5.4510919    -0.4959398    -0.3734099
H           5.9774689     0.4521373    -0.2069405
H           5.2791760    -0.6551392    -1.4423723
O           6.1375473    -1.6126114     0.2386283
O           3.2424329    -2.1227056    -1.8363371
C           0.0529421    -1.1754553    -0.6447329
H          -0.8806651    -1.1382233    -1.2117049
H           0.0722485    -0.2833933    -0.0085104
H           0.0351063    -2.0621659     0.0048430
19
173_C5H10N2O2_15-0-2-3 (-30,) energy =    -456.4695969
N           1.1673374    -1.2847918    -1.5855494
H           0.9654481    -1.8852756    -2.3749126
C           2.4822244    -1.4833702    -1.1796831
N           2.8290113    -0.8558825    -0.0012683
H           2.1889848    -0.1704534     0.3715454
C           4.1790453    -0.8350251     0.5195462
H           4.1500106    -0.2332075     1.4315216
C           4.9582311    -2.1492862     0.7566168
H           4.5962921    -2.9835493     0.1479324
H           5.0975678    -2.4679990     1.7970922
C           5.4007508    -0.4536970    -0.3544602
H           5.8766977     0.5147465    -0.1559677
H           5.2238690    -0.5799392    -1.4270470
O           6.1552391    -1.5538507     0.2048152
O           3.2687875    -2.1458658    -1.8493755
C           0.0584263    -1.0634620    -0.6657072
H          -0.8761899    -1.1440597    -1.2257990
H           0.0865290    -0.0503206    -0.2442077
H           0.0319047    -1.7843051     0.1637946
19
173_C5H10N2O2_15-0-2-3 (-15,) energy =    -456.4698731
N           1.2808239    -1.4113160    -1.4938048
H           1.0708130    -1.9963514    -2.2898723
C           2.5982017    -1.5494730    -1.0968033
N           2.9191834    -0.9412373     0.1009602
H           2.2471592    -0.3087786     0.5085822
C           4.2716571    -0.8640379     0.6099391
H           4.2206637    -0.2888731     1.5380919
C           5.1224054    -2.1404121     0.8054891
H           4.8002149    -2.9754952     0.1763580
H           5.2884199    -2.4787328     1.8358355
C           5.4625691    -0.3950888    -0.2636889
H           5.8871092     0.5928508    -0.0451893
H           5.2824282    -0.5043040    -1.3377136
O           6.2808974    -1.4658120     0.2613349
O           3.4106656    -2.1730005    -1.7746301
C           0.1773085    -0.9757235    -0.6572408
H          -0.7521764    -1.0895638    -1.2197406
H           0.2648882     0.0882050    -0.3976080
H           0.0886507    -1.5562179     0.2725556
19
173_C5H10N2O2_15-0-2-3 (0,) energy =    -456.4696456
N           1.2311192    -1.5394324    -1.4440420
H           1.0360370    -1.9947517    -2.3226394
C           2.5645876    -1.5923983    -1.0987065
N           2.8906527    -0.9795250     0.0942724
H           2.1807501    -0.4600748     0.5865618
C           4.2426304    -0.8875048     0.5982230
H           4.1861240    -0.3342356     1.5392600
C           5.1300334    -2.1452671     0.7568117
H           4.8247161    -2.9737540     0.1106768
H           5.3155299    -2.5027090     1.7773752
C           5.4112220    -0.3677661    -0.2754467
H           5.8103985     0.6272093    -0.0414477
H           5.2220849    -0.4604793    -1.3494309
O           6.2643193    -1.4258530     0.2188077
O           3.3902318    -2.1609660    -1.8096340
C           0.1515838    -0.9206814    -0.7035624
H          -0.7866011    -1.1058893    -1.2314058
H           0.2719248     0.1695402    -0.6174168
H           0.0507756    -1.3425853     0.3063342
19
173_C5H10N2O2_15-0-2-3 (15,) energy =    -456.4698720
N           1.2535133    -1.6566394    -1.3302900
H           1.0798724    -2.0152643    -2.2583563
C           2.6075152    -1.5840149    -1.0597689
N           2.9403879    -0.9224954     0.1061915
H           2.2002231    -0.7001699     0.7547123
C           4.2911918    -0.8633070     0.6221721
H           4.2362339    -0.3257218     1.5723571
C           5.1876104    -2.1206427     0.7516708
H           4.8847383    -2.9391228     0.0911830
H           5.3813580    -2.4973221     1.7638885
C           5.4504684    -0.3200612    -0.2450835
H           5.8442528     0.6717895     0.0094101
H           5.2564406    -0.3901045    -1.3195485
O           6.3133991    -1.3836072     0.2216156
O           3.4403824    -2.0779833    -1.8152169
C           0.2120846    -0.8678653    -0.6975957
H          -0.7313255    -1.0577069    -1.2145390
H           0.4114790     0.2129507    -0.7335336
H           0.0656048    -1.1610282     0.3511695
19
173_C5H10N2O2_15-0-2-3 (30,) energy =    -456.4695969
N           0.8327693    -1.8131609    -0.3897772
H           0.4370781    -2.7447527    -0.3897296
C           2.2118156    -1.8980441    -0.2344796
N           2.8904447    -0.7081788    -0.3967942
H           2.3470494     0.1416326    -0.4280893
C           4.3091072    -0.5634207    -0.1503860
H           4.5470737     0.4898610    -0.3197841
C           4.9840855    -1.0800485     1.1455163
H           4.4128327    -1.8659149     1.6492536
H           5.3216303    -0.3278025     1.8693926
C           5.3348663    -1.4765630    -0.8607414
H           5.9374903    -1.0261900    -1.6592337
H           4.9098228    -2.4279869    -1.1948395
O           6.0807029    -1.6176263     0.3703907
O           2.7623410    -2.9558813     0.0553000
C           0.1718187    -0.8507185    -1.2624908
H           0.1901117     0.1578313    -0.8295942
H          -0.8795735    -1.1332176    -1.3545512
H           0.6106703    -0.8047182    -2.2693099
19
173_C5H10N2O2_15-0-2-3 (45,) energy =    -456.4683789
N           0.8088880    -1.7371431    -0.3079564
H           0.4237106    -2.6745564    -0.2644273
C           2.1979607    -1.8517115    -0.1845446
N           2.8813231    -0.6606117    -0.2851618
H           2.3384572     0.1893786    -0.2460207
C           4.3092327    -0.5374962    -0.0880569
H           4.5491074     0.5221095    -0.2073969
C           5.0289893    -1.1314972     1.1494289
H           4.4694466    -1.9394363     1.6308090
H           5.4023771    -0.4238078     1.9000236
C           5.2981639    -1.4164979    -0.8880981
H           5.8740239    -0.9256183    -1.6823741
H           4.8520339    -2.3440942    -1.2603226
O           6.0888464    -1.6341466     0.3027807
O           2.7399089    -2.9260891     0.0520403
C           0.1950473    -0.9161945    -1.3529735
H           0.3137042     0.1516968    -1.1374392
H          -0.8788987    -1.1187748    -1.3611703
H           0.5978836    -1.1123760    -2.3568452
19
173_C5H10N2O2_15-0-2-3 (60,) energy =    -456.4664181
N           0.7520932    -1.6496362    -0.2321694
H           0.3498014    -2.5739756    -0.1021122
C           2.1481456    -1.8144565    -0.1316164
N           2.8482320    -0.6317168    -0.1655043
H           2.3122176     0.2155323    -0.0472859
C           4.2835886    -0.5374639    -0.0176031
H           4.5349153     0.5242667    -0.0806186
C           5.0403905    -1.2170291     1.1521527
H           4.4867712    -2.0458944     1.6039766
H           5.4532005    -0.5626518     1.9298418
C           5.2273298    -1.3786675    -0.9076492
H           5.7795373    -0.8480335    -1.6930067
H           4.7531469    -2.2758660    -1.3185566
O           6.0592882    -1.6801858     0.2353897
O           2.6688848    -2.9094309     0.0450545
C           0.1869555    -1.0045158    -1.4251179
H           0.5035463     0.0408216    -1.4845976
H          -0.9030254    -1.0109767    -1.3389800
H           0.4695602    -1.5023161    -2.3641993
19
173_C5H10N2O2_15-0-2-3 (75,) energy =    -456.4639528
N           0.7379864    -1.5272801    -0.1896946
H           0.3115520    -2.4219993     0.0433941
C           2.1388222    -1.7507560    -0.0978712
N           2.8579031    -0.5843135    -0.0519201
H           2.3275866     0.2636437     0.0844367
C           4.2985456    -0.5122865     0.0389895
H           4.5609025     0.5484815     0.0386221
C           5.0868994    -1.2800820     1.1302114
H           4.5355470    -2.1290178     1.5463144
H           5.5390783    -0.6860086     1.9338164
C           5.1959162    -1.3039338    -0.9410094
H           5.7282734    -0.7283371    -1.7081152
H           4.6923424    -2.1637385    -1.3952642
O           6.0630128    -1.6959863     0.1466816
O           2.6335571    -2.8658078     0.0066038
C           0.2292593    -1.0879518    -1.5015681
H           0.6585717    -0.1165912    -1.7632900
H          -0.8554531    -0.9661187    -1.4341806
H           0.4565189    -1.7947887    -2.3130849
19
173_C5H10N2O2_15-0-2-3 (90,) energy =    -456.4613396
N           0.7232573    -1.3916448    -0.1648670
H           0.2673343    -2.2279471     0.1991393
C           2.1261794    -1.6814696    -0.0857575
N           2.8725909    -0.5422828     0.0312067
H           2.3537759     0.3121277     0.1712178
C           4.3159597    -0.5002228     0.0921550
H           4.5984619     0.5530442     0.1596139
C           5.1075560    -1.3563531     1.1122476
H           4.5461857    -2.2210721     1.4799065
H           5.5856098    -0.8278758     1.9459432
C           5.1787074    -1.2410004    -0.9569730
H           5.7085718    -0.6256036    -1.6941999
H           4.6487314    -2.0582055    -1.4578684
O           6.0572104    -1.7228645     0.0844097
O           2.5869552    -2.8145817    -0.0659569
C           0.2399919    -1.1946084    -1.5471295
H           0.7153794    -0.3085254    -1.9788687
H          -0.8389445    -1.0178099    -1.5199978
H           0.4446547    -2.0529688    -2.2035309
19
173_C5H10N2O2_15-0-2-3 (105,) energy =    -456.4591812
N           0.7276235    -1.2481609    -0.1822361
H           0.2550576    -1.9906352     0.3349031
C           2.1304262    -1.5970323    -0.1251110
N           2.9034852    -0.4900590     0.0638831
H           2.3977720     0.3699098     0.2176871
C           4.3473477    -0.4847856     0.1370571
H           4.6531013     0.5545457     0.2777093
C           5.1064909    -1.4272730     1.1033971
H           4.5199191    -2.3001932     1.4074452
H           5.5878361    -0.9685989     1.9755722
C           5.2026425    -1.1750176    -0.9524151
H           5.7562450    -0.5244526    -1.6401844
H           4.6579845    -1.9423354    -1.5126080
O           6.0572028    -1.7489844     0.0623433
O           2.5591846    -2.7391901    -0.2040073
C           0.2127595    -1.3009984    -1.5669259
H           0.6953239    -0.5185211    -2.1614224
H          -0.8614955    -1.0962776    -1.5494553
H           0.3874238    -2.2693228    -2.0571989
19
173_C5H10N2O2_15-0-2-3 (120,) energy =    -456.4615426
N           0.8105761    -1.3150171    -0.2419684
H           0.5834596    -0.4031744     0.1453324
C           2.1971105    -1.5449620    -0.3114445
N           2.9897183    -0.4487664    -0.0293364
H           2.5383511     0.3974202     0.2869951
C           4.4221874    -0.5301731     0.1792942
H           4.7495546     0.4668156     0.4847042
C           5.0624445    -1.6226687     1.0709371
H           4.4276679    -2.5049497     1.2040419
H           5.4751052    -1.3033399     2.0359499
C           5.3511918    -1.1028090    -0.9167929
H           5.9853590    -0.3897945    -1.4578518
H           4.8347443    -1.7652967    -1.6174934
O           6.0939905    -1.8405022     0.0824730
O           2.6591832    -2.6177691    -0.6750241
C           0.0612839    -1.5503744    -1.4816681
H           0.2855175    -0.8106556    -2.2648075
H          -1.0102100    -1.5263645    -1.2643746
H           0.3180657    -2.5437492    -1.8536574
19
173_C5H10N2O2_15-0-2-3 (135,) energy =    -456.4660796
N           0.8401520    -1.1770825    -0.3157165
H           0.6181712    -0.2240010    -0.0463070
C           2.2112222    -1.4380109    -0.3917533
N           3.0262091    -0.3744268    -0.0428879
H           2.5886156     0.4319789     0.3810595
C           4.4489769    -0.5182844     0.1992813
H           4.8000105     0.4498171     0.5655452
C           5.0350496    -1.6774738     1.0438432
H           4.3702674    -2.5443770     1.1172181
H           5.4375117    -1.4230747     2.0323252
C           5.3849338    -1.0592367    -0.9060483
H           6.0540973    -0.3382312    -1.3916314
H           4.8650182    -1.6637612    -1.6548721
O           6.0801560    -1.8761862     0.0655332
O           2.6533816    -2.5061012    -0.7962452
C           0.0161696    -1.6307801    -1.4378085
H           0.1508214    -1.0146713    -2.3387746
H          -1.0373362    -1.6110192    -1.1450792
H           0.2974263    -2.6583035    -1.6718078
19
173_C5H10N2O2_15-0-2-3 (150,) energy =    -456.4694850
N           0.8658225    -1.0536716    -0.4130741
H           0.6539158    -0.0732662    -0.2653927
C           2.2235674    -1.3559065    -0.4647267
N           3.0525768    -0.3328996    -0.0302245
H           2.6180449     0.4219943     0.4834876
C           4.4662303    -0.5270902     0.2262098
H           4.8352864     0.4125160     0.6454298
C           5.0147612    -1.7399937     1.0199908
H           4.3318363    -2.5956133     1.0373947
H           5.4061868    -1.5452156     2.0263497
C           5.4074409    -1.0321922    -0.8910167
H           6.0972313    -0.3017172    -1.3315060
H           4.8883474    -1.5893094    -1.6763291
O           6.0721920    -1.9091901     0.0488690
O           2.6486779    -2.4233781    -0.8902831
C          -0.0102686    -1.6895507    -1.3940502
H           0.0714315    -1.2354591    -2.3918477
H          -1.0469670    -1.6201106    -1.0526931
H           0.2708469    -2.7403692    -1.4685018
19
173_C5H10N2O2_15-0-2-3 (165,) energy =    -456.4712146
N           0.8897254    -0.9424138    -0.5356686
H           0.6807749     0.0474342    -0.4942802
C           2.2349207    -1.2803287    -0.5346040
N           3.0595949    -0.2927060    -0.0156791
H           2.6134301     0.4198168     0.5460953
C           4.4677662    -0.5069793     0.2478785
H           4.8353448     0.4083057     0.7191120
C           5.0050272    -1.7606446     0.9854525
H           4.3199521    -2.6137059     0.9524618
H           5.3876199    -1.6174564     2.0038600
C           5.4198385    -0.9576707    -0.8829612
H           6.1158307    -0.2080384    -1.2794002
H           4.9083314    -1.4726393    -1.7017727
O           6.0722904    -1.8833042     0.0173823
O           2.6536504    -2.3526411    -0.9561490
C          -0.0295919    -1.7341861    -1.3424672
H           0.0094402    -1.4754659    -2.4099939
H          -1.0497026    -1.5876599    -0.9760262
H           0.2425271    -2.7846727    -1.2367933
19
173_C5H10N2O2_15-0-2-3 (180,) energy =    -456.4710098
N           0.9930604    -0.8372418    -0.7246897
H           0.6423779    -0.0722880    -0.1652844
C           2.2809467    -1.2779399    -0.4900690
N           3.0918636    -0.3254575     0.1115313
H           2.7942295     0.6368425     0.0289553
C           4.5054880    -0.5320528     0.3443885
H           4.8845130     0.3960831     0.7803044
C           4.9996297    -1.7543121     1.1505144
H           4.2940824    -2.5909113     1.1473528
H           5.3648799    -1.5683283     2.1681098
C           5.4702489    -1.0613716    -0.7486333
H           6.1935447    -0.3496293    -1.1661888
H           4.9629797    -1.6059898    -1.5509644
O           6.0818410    -1.9537913     0.2116542
O           2.6740040    -2.3967803    -0.8041744
C           0.0180154    -1.7142544    -1.3490655
H          -0.6872833    -1.1206149    -1.9391660
H          -0.5444423    -2.3134305    -0.6195085
H           0.5537663    -2.3985292    -2.0078037
