16
163_C5H8FNO_4-0-2-11 (-165,) energy =    -425.1422111
N           1.1318611    -0.9155084    -0.2417706
H           1.1214097    -0.0395589     0.2617674
C           2.3515487    -1.3701020    -0.6404421
O           2.5559012    -2.4568188    -1.1732925
C          -0.0205702    -1.7942110    -0.1407544
H          -0.2195559    -2.0772057     0.9008912
H          -0.9126378    -1.3108980    -0.5526522
H           0.1980108    -2.6941915    -0.7171851
C           4.6447246    -0.3444955    -1.3113660
H           5.0739720     0.6427239    -1.4535108
H           4.5938652    -0.9770450    -2.1917666
C           3.4924559    -0.4321661    -0.3535810
F           3.1066740     0.7448007     0.2738827
C           4.8263326    -1.0019491     0.0364525
H           4.9012161    -2.0836205     0.0791648
H           5.3738259    -0.4511676     0.7955087
16
163_C5H8FNO_4-0-2-11 (-150,) energy =    -425.1394213
N           1.1004249    -0.8577939    -0.3941855
H           1.1107068     0.0097697     0.1269618
C           2.3411362    -1.3081296    -0.7539960
O           2.5618228    -2.3922707    -1.2825339
C           0.0338862    -1.7980956    -0.0753858
H           0.0293784    -2.0563832     0.9918776
H          -0.9390459    -1.3748377    -0.3427880
H           0.1996147    -2.7048064    -0.6587661
C           4.6965001    -0.3149273    -1.2572005
H           5.1562596     0.6645404    -1.3475883
H           4.6916229    -0.9273414    -2.1532565
C           3.4793320    -0.3963583    -0.3826118
F           3.0792283     0.7759022     0.2444831
C           4.7717369    -1.0056830     0.0835452
H           4.8204838    -2.0893625     0.1063164
H           5.2759649    -0.4835421     0.8913372
16
163_C5H8FNO_4-0-2-11 (-135,) energy =    -425.1346327
N           1.0136381    -0.8371585    -0.5351612
H           1.0379238     0.0399024    -0.0273427
C           2.2686631    -1.2683006    -0.8990690
O           2.4951599    -2.3355940    -1.4548667
C           0.0529112    -1.7991544     0.0040499
H           0.2307834    -1.9963393     1.0698550
H          -0.9655947    -1.4216093    -0.1236504
H           0.1540265    -2.7328834    -0.5511774
C           4.6786489    -0.3268147    -1.2431780
H           5.1719576     0.6398441    -1.2750937
H           4.7077638    -0.9109689    -2.1575276
C           3.4094692    -0.3971637    -0.4453141
F           3.0100340     0.7666260     0.1968837
C           4.6549249    -1.0617661     0.0751914
H           4.6720039    -2.1465221     0.0654397
H           5.1229751    -0.5800866     0.9286869
16
163_C5H8FNO_4-0-2-11 (-120,) energy =    -425.1282977
N           0.9811185    -0.8365548    -0.6772859
H           1.0054547     0.0650228    -0.2103734
C           2.2632896    -1.2305998    -1.0287099
O           2.5143492    -2.2709991    -1.6192309
C           0.1486083    -1.7928871     0.0623031
H           0.4726756    -1.8998485     1.1067300
H          -0.8930858    -1.4609663     0.0443161
H           0.2125265    -2.7645123    -0.4307973
C           4.7101126    -0.3231224    -1.1843927
H           5.2224457     0.6334920    -1.1509724
H           4.7911136    -0.8791313    -2.1131050
C           3.3872237    -0.3921007    -0.4797133
F           2.9676087     0.7583747     0.1726060
C           4.5826740    -1.0989113     0.1037701
H           4.5825696    -2.1829224     0.0600900
H           4.9966964    -0.6530652     1.0034845
16
163_C5H8FNO_4-0-2-11 (-105,) energy =    -425.1212898
N           0.9309246    -0.8650105    -0.8144995
H           0.9394514     0.0726590    -0.4193764
C           2.2442001    -1.2268345    -1.1378940
O           2.5229745    -2.2335316    -1.7671106
C           0.2291842    -1.7613081     0.1214866
H           0.6670016    -1.7444016     1.1296641
H          -0.8198612    -1.4598550     0.1843651
H           0.2719885    -2.7809501    -0.2673662
C           4.6991148    -0.3210307    -1.1359691
H           5.2087917     0.6319234    -1.0318994
H           4.8229247    -0.8306259    -2.0864057
C           3.3432826    -0.4202574    -0.4985585
F           2.8961699     0.6974563     0.1896121
C           4.5118111    -1.1582163     0.1042370
H           4.5135319    -2.2388586     0.0079278
H           4.8819248    -0.7579068     1.0436318
16
163_C5H8FNO_4-0-2-11 (-90,) energy =    -425.1180896
N           1.0287217    -0.6577085    -0.7713422
H           0.5387164    -0.7585387    -1.6627289
C           2.2839493    -1.2644957    -1.0086736
O           2.5097114    -1.9591372    -1.9866326
C           0.1815039    -1.3078010     0.2518755
H          -0.7614779    -0.7595268     0.3243321
H          -0.0316941    -2.3602905     0.0197013
H           0.6822450    -1.2508785     1.2221148
C           4.6511507    -0.2595511    -0.8594002
H           5.0991777     0.6283315    -0.4231591
H           4.6695618    -0.3221526    -1.9424987
C           3.4105833    -0.7609530    -0.1601253
F           3.0124396    -0.0749366     0.9656030
C           4.6945196    -1.5361853    -0.0589151
H           4.7371982    -2.4780693    -0.5967654
H           5.1892725    -1.5120313     0.9071760
16
163_C5H8FNO_4-0-2-11 (-75,) energy =    -425.1244329
N           0.9958521    -0.7462338    -0.8609790
H           0.4701184    -0.9256414    -1.7169481
C           2.2811066    -1.2385381    -1.1127649
O           2.5679543    -1.8311732    -2.1435431
C           0.2356032    -1.2803131     0.2847010
H          -0.7091487    -0.7355991     0.3632889
H           0.0204890    -2.3526545     0.1816281
H           0.8015310    -1.1159105     1.2029816
C           4.6456428    -0.2554518    -0.8172697
H           5.0840023     0.6107273    -0.3306230
H           4.7109670    -0.2833815    -1.8997392
C           3.3693019    -0.7637748    -0.1954945
F           2.9326682    -0.1040035     0.9347163
C           4.6392707    -1.5586535    -0.0597646
H           4.6981379    -2.4822595    -0.6269740
H           5.0878289    -1.5730277     0.9288863
16
163_C5H8FNO_4-0-2-11 (-60,) energy =    -425.1288940
N           0.9071824    -1.0874777    -1.0147855
H           0.4180280    -1.4424000    -1.8345359
C           2.2552766    -1.3443276    -1.2152388
O           2.6685357    -1.8980468    -2.2273206
C           0.2062465    -1.4599443     0.2229602
H           0.7481165    -1.0690077     1.0827460
H          -0.7908444    -1.0108987     0.2111432
H           0.1012019    -2.5485093     0.3282775
C           4.5293639    -0.1939939    -0.8174424
H           4.8853570     0.7253218    -0.3622413
H           4.6759243    -0.2920581    -1.8875140
C           3.2375760    -0.7298263    -0.2581347
F           2.6900815    -0.0140961     0.7888867
C           4.5339502    -1.4418504     0.0276251
H           4.6863012    -2.3965092    -0.4659181
H           4.9032793    -1.3644594     1.0458063
16
163_C5H8FNO_4-0-2-11 (-45,) energy =    -425.1313848
N           0.8942301    -1.2007968    -1.0330221
H           0.3990668    -1.5925195    -1.8297329
C           2.2461686    -1.3063001    -1.2746017
O           2.6772643    -1.7634067    -2.3289638
C           0.2252465    -1.4573745     0.2455827
H           0.7677908    -0.9702878     1.0520251
H          -0.7847332    -1.0391325     0.2049482
H           0.1499585    -2.5321378     0.4615705
C           4.5327598    -0.2077526    -0.7991778
H           4.9022760     0.6900831    -0.3131660
H           4.6989394    -0.2847407    -1.8678641
C           3.2179302    -0.7243503    -0.2832898
F           2.6714733    -0.0146764     0.7709225
C           4.4898363    -1.4766092     0.0140768
H           4.6333532    -2.4224490    -0.4987043
H           4.8365367    -1.4337386     1.0423178
16
163_C5H8FNO_4-0-2-11 (-30,) energy =    -425.1327628
N           0.9129558    -1.2490801    -0.9670094
H           0.3792634    -1.6570740    -1.7261072
C           2.2513887    -1.3560927    -1.2414055
O           2.6523754    -1.7977058    -2.3155716
C           0.2456535    -1.2447268     0.3379137
H           0.3393110    -0.2759861     0.8309482
H          -0.8141115    -1.4447893     0.1636366
H           0.6362069    -2.0166829     1.0101667
C           4.5061810    -0.1872123    -0.7832758
H           4.8641022     0.6721502    -0.2241537
H           4.6098171    -0.1394302    -1.8618437
C           3.2527379    -0.8286140    -0.2523152
F           2.7329674    -0.2783030     0.9043834
C           4.5745731    -1.5371214    -0.1148728
H           4.7262041    -2.4123463    -0.7380994
H           4.9826630    -1.5850316     0.8902980
16
163_C5H8FNO_4-0-2-11 (-15,) energy =    -425.1336232
N           0.8987115    -1.3553331    -0.9614292
H           0.3537822    -1.7531084    -1.7162623
C           2.2287737    -1.3700676    -1.2692166
O           2.6271281    -1.7680112    -2.3625838
C           0.2199072    -1.1741959     0.3207163
H           0.2996767    -0.1455343     0.6789074
H          -0.8362608    -1.4066640     0.1655856
H           0.6110679    -1.8418293     1.0945406
C           4.4615179    -0.1586077    -0.8065452
H           4.8125595     0.6848410    -0.2195371
H           4.5424814    -0.0651021    -1.8840639
C           3.2346326    -0.8511066    -0.2788083
F           2.7276569    -0.3614465     0.9113422
C           4.5744459    -1.5333330    -0.1964180
H           4.7338540    -2.3781141    -0.8582241
H           5.0031559    -1.6125551     0.7981955
16
163_C5H8FNO_4-0-2-11 (0,) energy =    -425.1338361
N           0.9245935    -1.4845380    -0.9184350
H           0.3762084    -1.8428648    -1.6897308
C           2.2471731    -1.4248005    -1.2442392
O           2.6477748    -1.7806996    -2.3516670
C           0.2115773    -1.1285517     0.3056620
H           0.3161232    -0.0674003     0.5472568
H          -0.8466037    -1.3436654     0.1395383
H           0.5534230    -1.7135979     1.1634757
C           4.4322510    -0.1384762    -0.7535752
H           4.7596696     0.6841970    -0.1248517
H           4.4855695     0.0218777    -1.8250577
C           3.2499372    -0.9177357    -0.2440745
F           2.7494664    -0.5254517     0.9848197
C           4.6198486    -1.5405790    -0.2299219
H           4.8012371    -2.3364828    -0.9442856
H           5.0729870    -1.6581952     0.7499328
16
163_C5H8FNO_4-0-2-11 (15,) energy =    -425.1336227
N           1.1178593    -1.7983857     0.3312223
H           0.7687081    -2.6096212     0.8260918
C           2.4740307    -1.8677525     0.1896820
O           3.1210946    -2.7909796     0.6810035
C           0.1292133    -0.9646360    -0.3505757
H           0.2245968    -1.0151335    -1.4396010
H          -0.8590094    -1.3389666    -0.0732048
H           0.2025516     0.0814121    -0.0453050
C           4.4170303    -1.1490390    -1.3567149
H           4.5503752    -0.5938974    -2.2804622
H           4.6825114    -2.2006212    -1.3839939
C           3.2099374    -0.7765864    -0.5381491
F           2.4379074     0.2604873    -1.0301169
C           4.5854688    -0.4029161    -0.0566122
H           4.9649772    -0.9448522     0.8028418
H           4.8295001     0.6539584    -0.1085863
16
163_C5H8FNO_4-0-2-11 (30,) energy =    -425.1327628
N           1.1261867    -1.7082256     0.4083006
H           0.7815764    -2.5305921     0.8904533
C           2.4739098    -1.8358421     0.1949435
O           3.1073104    -2.7869612     0.6464031
C           0.1361096    -0.9964802    -0.4048982
H           0.2607537    -1.1860974    -1.4767586
H          -0.8514290    -1.3547212    -0.1050124
H           0.1805294     0.0804528    -0.2359112
C           4.3831591    -1.1101884    -1.3948041
H           4.5002904    -0.5204253    -2.2990599
H           4.6174237    -2.1666143    -1.4754259
C           3.2159812    -0.7402105    -0.5179059
F           2.4562587     0.3361864    -0.9363968
C           4.6183284    -0.4250806    -0.0723106
H           5.0117940    -1.0124480     0.7501966
H           4.8886963     0.6265089    -0.0890821
16
163_C5H8FNO_4-0-2-11 (45,) energy =    -425.1313849
N           1.1302891    -1.7101246     0.4920478
H           0.8341956    -2.5382161     1.0019234
C           2.4822642    -1.8159665     0.2508419
O           3.1378537    -2.7652577     0.6697847
C           0.1222071    -1.2234583    -0.4540765
H          -0.1046160    -1.9664965    -1.2311706
H          -0.7979011    -1.0018283     0.0944819
H           0.4697240    -0.3088031    -0.9279898
C           4.2725618    -0.9932692    -1.4347718
H           4.3333231    -0.3226193    -2.2867273
H           4.4630841    -2.0422960    -1.6382828
C           3.2002587    -0.6777672    -0.4235034
F           2.4567755     0.4640117    -0.6626295
C           4.6462627    -0.4486037    -0.0794614
H           5.0860657    -1.1242539     0.6455900
H           4.9505217     0.5920342    -0.0212547
16
163_C5H8FNO_4-0-2-11 (60,) energy =    -425.1288940
N           1.1480230    -1.6070718     0.5413806
H           0.8671833    -2.4185295     1.0890086
C           2.4716798    -1.8106759     0.1808538
O           3.0901134    -2.8142390     0.5156698
C           0.1098578    -1.2405943    -0.4332768
H          -0.1169930    -2.0626329    -1.1260193
H          -0.8028773    -0.9760641     0.1079355
H           0.4337265    -0.3719060    -1.0043929
C           4.3145168    -0.9534028    -1.4364350
H           4.4022423    -0.2588151    -2.2664570
H           4.5074339    -1.9972693    -1.6629415
C           3.2119002    -0.6656306    -0.4512134
F           2.4698967     0.4766422    -0.6812732
C           4.6491625    -0.4485481    -0.0564540
H           5.0683454    -1.1440719     0.6623527
H           4.9508985     0.5898987     0.0419100
16
163_C5H8FNO_4-0-2-11 (75,) energy =    -425.1244329
N           1.2224680    -1.2343458     0.6011001
H           0.9320731    -1.9293962     1.2894616
C           2.4784948    -1.6629517     0.1580087
O           2.9772378    -2.7200947     0.5181542
C           0.1376356    -1.0572473    -0.3825522
H           0.4484999    -0.3339774    -1.1380567
H          -0.1373131    -1.9987729    -0.8772711
H          -0.7406039    -0.6579722     0.1319576
C           4.4284425    -1.0891370    -1.4669759
H           4.5917548    -0.4785716    -2.3497981
H           4.5542056    -2.1597904    -1.5939909
C           3.3183781    -0.6441231    -0.5543946
F           2.6553035     0.5120871    -0.9105344
C           4.7551587    -0.4872988    -0.1241416
H           5.1060871    -1.1410680     0.6671986
H           5.1226557     0.5343472    -0.1030930
16
163_C5H8FNO_4-0-2-11 (90,) energy =    -425.1180896
N           1.2378499    -1.1074880     0.5760132
H           0.9982789    -1.7570602     1.3280122
C           2.4509358    -1.6222482     0.0626082
O           2.8677402    -2.7357422     0.3388308
C           0.0921226    -1.1035145    -0.3592074
H           0.3169080    -0.4418878    -1.2000793
H          -0.1445012    -2.1049201    -0.7442893
H          -0.7824721    -0.7048079     0.1615489
C           4.4831974    -1.0656108    -1.4692812
H           4.7002548    -0.4332797    -2.3246981
H           4.5838567    -2.1351107    -1.6251172
C           3.3487384    -0.6173097    -0.5907854
F           2.7261571     0.5608061    -0.9383968
C           4.7714101    -0.5149158    -0.0959112
H           5.0743514    -1.2010729     0.6881657
H           5.1636750     0.4953508    -0.0262231
16
163_C5H8FNO_4-0-2-11 (105,) energy =    -425.1212898
N           1.1370589    -1.3081806     0.5131511
H           1.1233576    -0.3214790     0.7614479
C           2.4509162    -1.6715981     0.1939373
O           2.7968205    -2.8258144     0.0063181
C           0.1321286    -1.5402611    -0.5395177
H           0.1860069    -2.5845389    -0.8546216
H          -0.8637687    -1.3550073    -0.1281860
H           0.2827536    -0.8940632    -1.4159494
C           4.2982091    -0.6822322    -1.3220833
H           4.4368059     0.2255132    -1.9021559
H           4.2286092    -1.6069495    -1.8852127
C           3.4057451    -0.5487954    -0.1141554
F           2.8925191     0.7142363     0.1390630
C           4.8861737    -0.7228225     0.0659983
H           5.2143077    -1.6806131     0.4575509
H           5.4326905     0.1496579     0.4106916
16
163_C5H8FNO_4-0-2-11 (120,) energy =    -425.1282977
N           1.1509079    -1.2000667     0.4117712
H           1.1298290    -0.1987031     0.5798940
C           2.4395618    -1.6086685     0.1033145
O           2.7455082    -2.7696566    -0.1262044
C           0.0678953    -1.6076614    -0.4913078
H           0.1742934    -2.6728368    -0.7043152
H          -0.8964843    -1.4448298    -0.0023494
H           0.0885524    -1.0498601    -1.4377336
C           4.3716523    -0.6284821    -1.3058519
H           4.5671207     0.2964323    -1.8406490
H           4.2859728    -1.5251227    -1.9105680
C           3.4453366    -0.5111482    -0.1237806
F           2.9710204     0.7595585     0.1686662
C           4.9095236    -0.7520178     0.0987345
H           5.1866226    -1.7381433     0.4578905
H           5.4778980     0.0820859     0.4986524
16
163_C5H8FNO_4-0-2-11 (135,) energy =    -425.1346318
N           1.1736872    -1.1118648     0.2886035
H           1.1376546    -0.1061774     0.4116349
C           2.4399075    -1.5517043    -0.0226111
O           2.7188435    -2.7144950    -0.2863854
C           0.0255309    -1.6633456    -0.4293557
H           0.1977802    -2.7297199    -0.5827209
H          -0.8839009    -1.5348329     0.1644691
H          -0.1130155    -1.1796986    -1.4057588
C           4.4659468    -0.5771096    -1.2987337
H           4.7169207     0.3591385    -1.7886467
H           4.3875517    -1.4495200    -1.9389043
C           3.4821804    -0.4747644    -0.1644869
F           3.0252202     0.7976585     0.1496241
C           4.9247425    -0.7660097     0.1271081
H           5.1556662    -1.7715677     0.4642502
H           5.4931479     0.0368086     0.5866474
16
163_C5H8FNO_4-0-2-11 (150,) energy =    -425.1394192
N           1.1745015    -1.0436329     0.1570515
H           1.1163489    -0.0398130     0.2717541
C           2.4211770    -1.5067693    -0.1612923
O           2.6774609    -2.6691103    -0.4559099
C          -0.0177036    -1.7057288    -0.3565390
H           0.1941962    -2.7728970    -0.4348183
H          -0.8562227    -1.5573509     0.3301333
H          -0.2964749    -1.3256764    -1.3485418
C           4.5494398    -0.5473790    -1.2784747
H           4.8611824     0.3957392    -1.7175191
H           4.4886930    -1.3953529    -1.9526509
C           3.4959571    -0.4545947    -0.2101353
F           3.0517792     0.8185691     0.1198778
C           4.9070578    -0.7989358     0.1670178
H           5.0883424    -1.8213672     0.4828660
H           5.4641762    -0.0285220     0.6914007
16
163_C5H8FNO_4-0-2-11 (165,) energy =    -425.1422107
N           1.2054801    -1.0989517     0.1127013
H           1.1801709    -0.1603833     0.4861808
C           2.3941855    -1.5046940    -0.4125909
O           2.5779679    -2.5706186    -0.9928285
C          -0.0449944    -1.7612573    -0.2149767
H          -0.6623141    -1.8858265     0.6807712
H          -0.6155501    -1.1960030    -0.9631337
H           0.1977717    -2.7436486    -0.6223939
C           4.5316510    -0.3830915    -1.3566631
H           4.8818376     0.6241326    -1.5619864
H           4.4062994    -1.0331621    -2.2164068
C           3.5163877    -0.5144676    -0.2578312
F           3.1475437     0.6532122     0.3969623
C           4.9178057    -1.0034192    -0.0345142
H           5.0562984    -2.0788533     0.0108000
H           5.5277429    -0.4115755     0.6413037
16
163_C5H8FNO_4-0-2-11 (180,) energy =    -425.1430633
N           1.1796289    -0.9939989    -0.0542947
H           1.1541422    -0.0853014     0.3849891
C           2.3805646    -1.4281493    -0.5176977
O           2.5727634    -2.5060157    -1.0738850
C          -0.0347414    -1.7786637    -0.1708081
H          -0.4588011    -1.9992030     0.8158753
H          -0.7887477    -1.2545954    -0.7699868
H           0.2265214    -2.7153926    -0.6652932
C           4.6006391    -0.3574308    -1.3314877
H           4.9936044     0.6393503    -1.5079958
H           4.5094914    -0.9991098    -2.2018757
C           3.5159975    -0.4654735    -0.2992535
F           3.1404135     0.7077225     0.3417554
C           4.8860471    -0.9970218     0.0072119
H           4.9912608    -2.0761079     0.0530259
H           5.4686204    -0.4261639     0.7240954
