16
163_C5H8FNO_0-2-11-8 (-165,) energy =    -425.1418171
N           1.1653260    -0.8994985    -0.1298826
H           1.1066922     0.0658484     0.1611452
C           2.3620705    -1.3307698    -0.6100517
O           2.5744097    -2.4528435    -1.0602918
C          -0.0373219    -1.7090104    -0.1888407
H           0.2561618    -2.7102693    -0.5074603
H          -0.5125605    -1.7685507     0.7966101
H          -0.7615936    -1.3043060    -0.9066311
C           4.7593187    -0.5108181    -1.2142391
H           5.2466099     0.4009432    -1.5464998
H           4.7993910    -1.3529508    -1.8974030
C           3.4824244    -0.3370841    -0.4526462
F           3.0511384     0.9565731    -0.1961734
C           4.7278663    -0.7859879     0.2689101
H           4.7609674    -1.8165439     0.6080215
H           5.1851368    -0.0532494     0.9274364
16
163_C5H8FNO_0-2-11-8 (-150,) energy =    -425.1429754
N           1.1428546    -0.8864104    -0.1801252
H           1.0808926     0.0906922     0.0665418
C           2.3729546    -1.3745862    -0.4871501
O           2.6066614    -2.5320226    -0.8242919
C          -0.0592330    -1.6954675    -0.2471783
H           0.2456446    -2.7179868    -0.4746486
H          -0.5926946    -1.6821188     0.7100366
H          -0.7365933    -1.3415467    -1.0339722
C           4.6972500    -0.4891767    -1.2365817
H           5.1312542     0.4467329    -1.5755169
H           4.7009969    -1.3070118    -1.9497893
C           3.4889980    -0.3739880    -0.3552146
F           3.0591944     0.9067172    -0.0349372
C           4.7988907    -0.8160894     0.2344369
H           4.8758063    -1.8576777     0.5291771
H           5.2986930    -0.0973204     0.8769525
16
163_C5H8FNO_0-2-11-8 (-135,) energy =    -425.1427827
N           1.1226789    -0.8935194    -0.2489426
H           1.0631888     0.0961516    -0.0579486
C           2.3652237    -1.4319847    -0.3592746
O           2.6020619    -2.6205960    -0.5565802
C          -0.0850995    -1.6947985    -0.3074203
H           0.2113877    -2.7183352    -0.5412870
H          -0.6173040    -1.6868751     0.6515829
H          -0.7602464    -1.3275348    -1.0887490
C           4.6173297    -0.5117246    -1.2570192
H           5.0034183     0.4372105    -1.6170742
H           4.5832445    -1.3206320    -1.9797574
C           3.4852484    -0.4309086    -0.2719444
F           3.0651091     0.8450179     0.0825503
C           4.8421336    -0.8554437     0.1986229
H           4.9551260    -1.8997675     0.4709728
H           5.3818602    -0.1374713     0.8086934
16
163_C5H8FNO_0-2-11-8 (-120,) energy =    -425.1412460
N           1.2084910    -0.9115100    -0.1259129
H           1.1533742     0.0319633     0.2305214
C           2.4511230    -1.4406705    -0.2852293
O           2.6827985    -2.5953978    -0.6306483
C           0.0016642    -1.7092801    -0.2386042
H          -0.4689778    -1.8731558     0.7389675
H          -0.7216362    -1.2215946    -0.9012316
H           0.2839721    -2.6744443    -0.6615325
C           4.5032272    -0.2055238    -1.2749000
H           4.7975116     0.8263931    -1.4415514
H           4.3662824    -0.8116183    -2.1649407
C           3.5682443    -0.4432903    -0.1211964
F           3.1882680     0.6889370     0.5907664
C           4.9900502    -0.8798900    -0.0068198
H           5.1674789    -1.9502607    -0.0265510
H           5.6184907    -0.2999190     0.6620218
16
163_C5H8FNO_0-2-11-8 (-105,) energy =    -425.1384534
N           1.2369160    -0.8929739    -0.2123969
H           1.1851278     0.0752861     0.0729083
C           2.4687394    -1.4742733    -0.1865621
O           2.6802744    -2.6669338    -0.3774073
C           0.0148668    -1.6731137    -0.2900951
H          -0.4749111    -1.7679166     0.6877291
H          -0.6858603    -1.2105773    -0.9928797
H           0.2810079    -2.6687484    -0.6475568
C           4.4381763    -0.1753101    -1.2762740
H           4.7011344     0.8688907    -1.4168626
H           4.2553757    -0.7435297    -2.1832747
C           3.6003279    -0.4818991    -0.0664886
F           3.2523982     0.6238835     0.7038057
C           5.0285547    -0.8940740    -0.0725050
H           5.2214307    -1.9593593    -0.1482749
H           5.6975233    -0.3305938     0.5704880
16
163_C5H8FNO_0-2-11-8 (-90,) energy =    -425.1348027
N           1.2715382    -0.8996279    -0.2971368
H           1.2263023     0.0960057    -0.1254043
C           2.4782333    -1.5013029    -0.0879238
O           2.6585942    -2.7127179    -0.1019421
C           0.0309173    -1.6544829    -0.3383485
H          -0.5052893    -1.6200094     0.6190583
H          -0.6227084    -1.2628052    -1.1243324
H           0.2830873    -2.6919841    -0.5613616
C           4.3707877    -0.1167938    -1.2398217
H           4.6214817     0.9365947    -1.3237628
H           4.1342041    -0.6192284    -2.1732080
C           3.6247848    -0.5150492     0.0006098
F           3.3227204     0.5390305     0.8583331
C           5.0472103    -0.9132335    -0.1283786
H           5.2416266    -1.9692047    -0.2875854
H           5.7594095    -0.3899885     0.5020528
16
163_C5H8FNO_0-2-11-8 (-75,) energy =    -425.1313561
N           1.3095932    -0.9419927    -0.3787222
H           1.2830180     0.0687125    -0.4032816
C           2.4840491    -1.5218136     0.0067726
O           2.6233207    -2.7200296     0.2124609
C           0.0495807    -1.6656473    -0.3685711
H          -0.5458905    -1.4411267     0.5259111
H          -0.5381331    -1.4155098    -1.2577020
H           0.2823728    -2.7311601    -0.3765147
C           4.2954513    -0.0391211    -1.1934752
H           4.5667697     1.0126961    -1.2076397
H           3.9813841    -0.4515742    -2.1482127
C           3.6416328    -0.5373346     0.0604737
F           3.4207354     0.4292551     1.0338300
C           5.0419291    -0.9382853    -0.2089658
H           5.2133441    -1.9780931    -0.4696494
H           5.8103038    -0.4764786     0.4033187
16
163_C5H8FNO_0-2-11-8 (-60,) energy =    -425.1293443
N           1.3476838    -0.9939768    -0.4381261
H           1.3580253    -0.0161957    -0.6934727
C           2.4845364    -1.5179264     0.1049074
O           2.5773966    -2.6600410     0.5327579
C           0.0784898    -1.7001031    -0.4241042
H          -0.5990566    -1.3032668     0.3426254
H          -0.4106142    -1.6283722    -1.4011895
H           0.2887369    -2.7465945    -0.1996146
C           4.2197331     0.0569980    -1.1368582
H           4.5273733     1.0973826    -1.0811400
H           3.8199966    -0.2575602    -2.0971776
C           3.6548969    -0.5426341     0.1159189
F           3.5599811     0.3124795     1.2022089
C           5.0161076    -0.9496112    -0.3081315
H           5.1441727    -1.9600352    -0.6842921
H           5.8451681    -0.5649530     0.2779658
16
163_C5H8FNO_0-2-11-8 (-45,) energy =    -425.1286011
N           1.4281489    -0.9897273    -0.4807386
H           1.4761154    -0.0711899    -0.8982629
C           2.5248139    -1.4387631     0.1957289
O           2.5562244    -2.4811768     0.8342144
C           0.1465460    -1.6710766    -0.4259427
H          -0.5579252    -1.1573817     0.2404461
H          -0.2948500    -1.7377627    -1.4258038
H           0.3252601    -2.6751015    -0.0388078
C           4.2039521     0.1152240    -1.1746949
H           4.5811501     1.1314590    -1.1052650
H           3.6917018    -0.1238478    -2.1030700
C           3.7347830    -0.5174319     0.1018999
F           3.8283405     0.2665029     1.2363877
C           5.0167280    -0.9804780    -0.4917061
H           5.0472281    -1.9705681    -0.9366958
H           5.9236892    -0.6785823     0.0234810
16
163_C5H8FNO_0-2-11-8 (-30,) energy =    -425.1284072
N           1.4614390    -1.0507947    -0.5347275
H           1.5330574    -0.1807387    -1.0420956
C           2.5007212    -1.4041714     0.2768579
O           2.4628038    -2.3322818     1.0715489
C           0.1725851    -1.7182364    -0.4706277
H          -0.5551426    -1.1426966     0.1156010
H          -0.2258601    -1.8738349    -1.4783288
H           0.3243618    -2.6827154     0.0157749
C           4.1794491     0.1369201    -1.1384370
H           4.6285127     1.1193378    -1.0263144
H           3.5989771    -0.0007013    -2.0470493
C           3.7499653    -0.5482648     0.1268556
F           3.9977300     0.1398581     1.2956779
C           4.9534011    -1.0558243    -0.5956322
H           4.8825749    -2.0071585    -1.1147790
H           5.9112608    -0.8591473    -0.1232978
16
163_C5H8FNO_0-2-11-8 (-15,) energy =    -425.1284793
N           1.5014143    -1.0976485    -0.5753635
H           1.5834818    -0.2804732    -1.1622200
C           2.4763720    -1.3185742     0.3563569
O           2.3699025    -2.1137754     1.2780597
C           0.2127402    -1.7656132    -0.5000479
H          -0.5409032    -1.1465408     0.0035928
H          -0.1429612    -2.0125274    -1.5052296
H           0.3463009    -2.6817665     0.0766000
C           4.1667682     0.2024679    -1.0887059
H           4.6880134     1.1428261    -0.9368960
H           3.5353385     0.1717481    -1.9728000
C           3.7585013    -0.5275150     0.1606172
F           4.1397236     0.0663435     1.3409905
C           4.8783350    -1.0722682    -0.6739476
H           4.7023329    -1.9773743    -1.2479276
H           5.8735325    -0.9806053    -0.2491439
16
163_C5H8FNO_0-2-11-8 (0,) energy =    -425.1286636
N           1.5476105    -1.1599176    -0.5981951
H           1.6554855    -0.4234148    -1.2795415
C           2.4568089    -1.2363645     0.4216399
O           2.2787881    -1.8869296     1.4401173
C           0.2530859    -1.8152403    -0.5044249
H          -0.5231307    -1.1404393    -0.1205814
H          -0.0515161    -2.1857180    -1.4881444
H           0.3521349    -2.6525335     0.1873767
C           4.1612563     0.2695705    -1.0330001
H           4.7527896     1.1598790    -0.8424742
H           3.4846722     0.3560234    -1.8793306
C           3.7697698    -0.5125561     0.1915662
F           4.2637330    -0.0225609     1.3740665
C           4.8006608    -1.0733354    -0.7499963
H           4.5217921    -1.9220568    -1.3676933
H           5.8226108    -1.0831252    -0.3830031
16
163_C5H8FNO_0-2-11-8 (15,) energy =    -425.1289039
N           1.5994421    -1.2374828    -0.6237877
H           1.7763080    -0.6320735    -1.4113158
C           2.4381487    -1.1790143     0.4579638
O           2.1739634    -1.6766471     1.5415505
C           0.2820762    -1.8444890    -0.5225277
H          -0.4998716    -1.1010500    -0.3193877
H           0.0395223    -2.3715957    -1.4505722
H           0.3053777    -2.5541085     0.3051831
C           4.1558907     0.3330337    -0.9602257
H           4.8099327     1.1688834    -0.7308420
H           3.4345271     0.5427271    -1.7463359
C           3.7835295    -0.5222565     0.2206498
F           4.3580104    -0.1526948     1.4067329
C           4.7312456    -1.0587657    -0.8217867
H           4.3701945    -1.8441941    -1.4793811
H           5.7704046    -1.1484435    -0.5197649
16
163_C5H8FNO_0-2-11-8 (30,) energy =    -425.1292330
N           1.6269218    -1.5228992    -0.1339565
H           2.2178863    -1.9595661     0.5571045
C           2.1463396    -0.5747289    -0.9764617
O           1.4950111    -0.0207703    -1.8482124
C           0.2370372    -1.9391846    -0.2068552
H          -0.2343829    -1.3554690    -0.9983163
H           0.1537623    -3.0051529    -0.4501804
H          -0.2839031    -1.7497004     0.7391151
C           4.6324319    -1.1893070    -0.2281093
H           5.6118573    -1.1254901    -0.6925751
H           4.3303515    -2.1990947     0.0380392
C           3.6048539    -0.2256144    -0.7602754
F           4.0510845     0.6335153    -1.7252720
C           4.1859066    -0.0165837     0.6151029
H           3.5460629    -0.1882641     1.4766760
H           4.8726632     0.8180302     0.7180588
16
163_C5H8FNO_0-2-11-8 (45,) energy =    -425.1292024
N           1.5886386    -1.4286233    -0.0624010
H           2.1242956    -1.7341952     0.7358484
C           2.1584140    -0.5919486    -0.9862373
O           1.5708820    -0.1808404    -1.9746819
C           0.2339992    -1.9320597    -0.2112224
H          -0.1770966    -1.4907500    -1.1198356
H           0.2226898    -3.0246058    -0.3056877
H          -0.3906664    -1.6435853     0.6422565
C           4.6405452    -1.1984143    -0.3004513
H           5.6113573    -1.0973010    -0.7760263
H           4.3291013    -2.2228956    -0.1147720
C           3.5967776    -0.1957087    -0.7211999
F           4.0156859     0.7478319    -1.6174445
C           4.2111303    -0.1012808     0.6491431
H           3.6088386    -0.3395205     1.5222779
H           4.8970309     0.7277730     0.7946511
16
163_C5H8FNO_0-2-11-8 (60,) energy =    -425.1288893
N           1.5930805    -1.4469700    -0.0243466
H           2.0298844    -1.4064744     0.8842984
C           2.1048942    -0.6813563    -1.0384441
O           1.5097306    -0.4613570    -2.0818167
C           0.2473911    -1.9925201    -0.1011978
H          -0.0109587    -2.0978710    -1.1554553
H           0.2136247    -2.9727906     0.3841393
H          -0.4928439    -1.3338841     0.3718053
C           4.6696680    -1.1292416    -0.6542867
H           5.5654535    -0.9101356    -1.2275930
H           4.4406544    -2.1844336    -0.5368807
C           3.5191430    -0.1739112    -0.8375638
F           3.7702252     0.8948951    -1.6566063
C           4.2896387    -0.1729886     0.4549348
H           3.8476533    -0.5621286     1.3689357
H           4.9249616     0.6941738     0.6074828
16
163_C5H8FNO_0-2-11-8 (75,) energy =    -425.1286532
N           1.5445059    -1.3820032     0.0242950
H           1.9082429    -1.1847112     0.9446807
C           2.1216083    -0.7568453    -1.0473096
O           1.6056905    -0.6927878    -2.1526876
C           0.2184549    -1.9705396    -0.0714791
H           0.0454179    -2.2372674    -1.1147568
H           0.1619484    -2.8685255     0.5514239
H          -0.5668859    -1.2694036     0.2398192
C           4.7071205    -1.0976184    -0.7393634
H           5.5760894    -0.7824728    -1.3091445
H           4.5368459    -2.1698443    -0.7079859
C           3.5095020    -0.1910039    -0.8127568
F           3.6894680     0.9568241    -1.5433095
C           4.3060785    -0.2643515     0.4608785
H           3.9104190    -0.7706202     1.3375898
H           4.9019757     0.6151915     0.6848637
16
163_C5H8FNO_0-2-11-8 (90,) energy =    -425.1284742
N           1.5032877    -1.3178047     0.0476298
H           1.8208773    -1.0078508     0.9542929
C           2.1568247    -0.8461709    -1.0560595
O           1.7236373    -0.9398820    -2.1947904
C           0.1848632    -1.9217430    -0.0512370
H           0.0741878    -2.3174722    -1.0616319
H           0.0892909    -2.7351776     0.6745716
H          -0.6155377    -1.1910373     0.1232019
C           4.7656228    -1.0314144    -0.8108468
H           5.6042565    -0.6021448    -1.3508392
H           4.6756263    -2.1116269    -0.8796654
C           3.5118104    -0.2116127    -0.7916416
F           3.5976065     1.0087748    -1.4208838
C           4.3209488    -0.3438580     0.4680861
H           3.9633706    -0.9653398     1.2848505
H           4.8624921     0.5447452     0.7781086
16
163_C5H8FNO_0-2-11-8 (105,) energy =    -425.1284072
N           1.4711115    -1.2567670     0.0493984
H           1.7691795    -0.8538113     0.9259292
C           2.2027008    -0.9710715    -1.0671383
O           1.8524763    -1.2522673    -2.2041114
C           0.1564431    -1.8702684    -0.0264350
H           0.0657668    -2.3341271    -1.0095197
H           0.0464218    -2.6331587     0.7510364
H          -0.6453189    -1.1292473     0.0853537
C           4.8234246    -0.9850339    -0.9009364
H           5.6245105    -0.4598072    -1.4125447
H           4.8070282    -2.0602528    -1.0530949
C           3.5224925    -0.2603451    -0.8037404
F           3.4974430     1.0061496    -1.3482028
C           4.3562495    -0.4235662     0.4343660
H           4.0428358    -1.1253704     1.2029780
H           4.8516822     0.4691904     0.8043875
16
163_C5H8FNO_0-2-11-8 (120,) energy =    -425.1286179
N           1.4336103    -1.1799193     0.0592220
H           1.6877691    -0.6853328     0.9024980
C           2.2504841    -1.0484318    -1.0258114
O           2.0002896    -1.5084954    -2.1308856
C           0.1257627    -1.8065617    -0.0216186
H           0.0889984    -2.3691044    -0.9554635
H          -0.0254707    -2.4879633     0.8220741
H          -0.6808997    -1.0625729    -0.0270672
C           4.8656633    -0.8726148    -0.9441139
H           5.6218277    -0.2473390    -1.4094020
H           4.9128399    -1.9250033    -1.2077826
C           3.5246772    -0.2582372    -0.7535991
F           3.3785064     1.0514204    -1.1682884
C           4.3938736    -0.4773816     0.4502382
H           4.1351934    -1.2660881     1.1520144
H           4.8416808     0.4063857     0.8956211
16
163_C5H8FNO_0-2-11-8 (135,) energy =    -425.1294476
N           1.3775397    -1.1247844     0.0599574
H           1.5578745    -0.4970977     0.8311907
C           2.2752334    -1.1398944    -0.9674194
O           2.1343335    -1.7956780    -1.9904535
C           0.0833219    -1.7785622    -0.0230718
H           0.1202484    -2.4720119    -0.8642170
H          -0.1249657    -2.3335662     0.8976063
H          -0.7263441    -1.0577685    -0.1944038
C           4.8671943    -0.7707571    -1.0121355
H           5.5663689    -0.0572214    -1.4378098
H           4.9559907    -1.7851920    -1.3888425
C           3.5011691    -0.2710560    -0.7126528
F           3.2308640     1.0605881    -0.9730562
C           4.4359197    -0.5468301     0.4308074
H           4.2498753    -1.4107787     1.0632965
H           4.8473675     0.3192138     0.9419079
16
163_C5H8FNO_0-2-11-8 (150,) energy =    -425.1317877
N           1.3156602    -1.0500073     0.0333969
H           1.3771172    -0.2312458     0.6241889
C           2.2906766    -1.2039610    -0.9105929
O           2.2712138    -2.0629352    -1.7822566
C           0.0418527    -1.7443737    -0.0513960
H           0.1833746    -2.6149817    -0.6929299
H          -0.2753153    -2.0738047     0.9431761
H          -0.7444298    -1.1118557    -0.4838498
C           4.8476142    -0.6763652    -1.1174986
H           5.4928897     0.1130483    -1.4913276
H           4.9405232    -1.6319973    -1.6241088
C           3.4782555    -0.2799367    -0.6933978
F           3.1187213     1.0565409    -0.7481020
C           4.4950434    -0.6477052     0.3562399
H           4.3731184    -1.5847926     0.8922358
H           4.8938451     0.1738674     0.9451462
16
163_C5H8FNO_0-2-11-8 (165,) energy =    -425.1356238
N           1.2485940    -0.9716212    -0.0130551
H           1.2371636    -0.0615420     0.4278746
C           2.3099378    -1.2442321    -0.8261973
O           2.3968845    -2.2369850    -1.5389981
C           0.0103571    -1.7281283    -0.0807146
H           0.2349576    -2.6880460    -0.5474812
H          -0.3830351    -1.8977824     0.9266992
H          -0.7547589    -1.2158509    -0.6786877
C           4.8251976    -0.6045980    -1.1664654
H           5.4223748     0.2389388    -1.4998445
H           4.9065958    -1.5055911    -1.7661832
C           3.4698934    -0.2916015    -0.6306505
F           3.0735669     1.0325306    -0.5277770
C           4.5631123    -0.7299828     0.3156378
H           4.4917680    -1.7191931     0.7583163
H           4.9687219     0.0428016     0.9627558
16
163_C5H8FNO_0-2-11-8 (180,) energy =    -425.1392942
N           1.1923448    -0.9249134    -0.0603698
H           1.1522574     0.0226929     0.2885629
C           2.3261631    -1.2891251    -0.7213874
O           2.4822035    -2.3600037    -1.2986393
C          -0.0255586    -1.7128875    -0.1164463
H           0.2442508    -2.7149542    -0.4526741
H          -0.4830035    -1.7741289     0.8764309
H          -0.7567263    -1.2902291    -0.8177606
C           4.7873886    -0.5588429    -1.2016442
H           5.3318920     0.3227582    -1.5265142
H           4.8455433    -1.4228605    -1.8557252
C           3.4670761    -0.3176558    -0.5467234
F           3.0542042     0.9909688    -0.3474228
C           4.6414535    -0.7803991     0.2836468
H           4.6219272    -1.7977098     0.6624100
H           5.0737715    -0.0378625     0.9482941
