15
266_C6H4F3NO_0-4-11-9 (-165,) energy =    -660.5474738
C           1.5974788    -1.3254804    -0.3034328
F           2.1596053    -1.8818631    -1.3821912
F           0.2694407    -1.3828809    -0.4478019
F           1.9379043    -2.0455668     0.7739118
O           1.9104253     0.0000943    -0.1651896
C           5.6845147     1.2775787     0.7703412
H           6.6979914     1.5857189     1.0051992
C           4.6067635     2.1607591     0.8952102
H           4.7626289     3.1807314     1.2347774
C           3.3265243     1.7183241     0.5865630
H           2.4513570     2.3526700     0.6689273
C           3.1998466     0.3944306     0.1551260
N           4.1950241    -0.4618880     0.0266874
C           5.4234376    -0.0180862     0.3367712
H           6.2269567    -0.7429469     0.2265112
15
266_C6H4F3NO_0-4-11-9 (-150,) energy =    -660.5468282
C           1.5898043    -1.3035774    -0.3043219
F           2.1400055    -2.0382409    -1.2774349
F           0.2622535    -1.3373899    -0.4589579
F           1.8975728    -1.8655473     0.8743843
O           1.9537274     0.0139255    -0.3587204
C           5.6762670     1.2681518     0.7979687
H           6.6783291     1.5698585     1.0847144
C           4.5853889     2.1297569     0.9490305
H           4.7179471     3.1251504     1.3632873
C           3.3198138     1.6938195     0.5738938
H           2.4340207     2.3102265     0.6761452
C           3.2231700     0.4041026     0.0455244
N           4.2325550    -0.4318193    -0.1094710
C           5.4443962     0.0008580     0.2714492
H           6.2598241    -0.7072436     0.1411305
15
266_C6H4F3NO_0-4-11-9 (-135,) energy =    -660.5458479
C           1.5782740    -1.2769070    -0.2791670
F           2.1420324    -2.1825386    -1.0869388
F           0.2600425    -1.2871606    -0.4991495
F           1.8055265    -1.6538026     0.9911649
O           2.0103544    -0.0040768    -0.5192905
C           5.6705038     1.2657665     0.8140581
H           6.6591434     1.5723834     1.1398237
C           4.5561415     2.0878873     1.0010920
H           4.6549043     3.0559059     1.4839127
C           3.3088619     1.6454076     0.5717472
H           2.4050335     2.2302501     0.6983895
C           3.2570240     0.3949642    -0.0453826
N           4.2901154    -0.4049020    -0.2352651
C           5.4819406     0.0299517     0.1999533
H           6.3184865    -0.6470085     0.0408419
15
266_C6H4F3NO_0-4-11-9 (-120,) energy =    -660.5448605
C           1.5509039    -1.1974809    -0.2592724
F           2.1617758    -2.2540384    -0.8099243
F           0.2698802    -1.2104979    -0.6358900
F           1.6092541    -1.3442326     1.0788326
O           2.0755998    -0.0052246    -0.6591769
C           5.6849367     1.2622605     0.8168511
H           6.6628811     1.5684780     1.1740633
C           4.5484452     2.0378413     1.0572983
H           4.6182495     2.9681365     1.6136866
C           3.3166589     1.5966562     0.5820178
H           2.3966559     2.1469842     0.7423956
C           3.3027983     0.3965912    -0.1279108
N           4.3583395    -0.3583269    -0.3719739
C           5.5347572     0.0732781     0.1058011
H           6.3914956    -0.5650034    -0.0992509
15
266_C6H4F3NO_0-4-11-9 (-105,) energy =    -660.5442807
C           1.5268418    -1.1753834    -0.2101628
F           2.2356779    -2.3031641    -0.3539057
F           0.3558455    -1.3250081    -0.8303736
F           1.2976602    -1.0122544     1.1102311
O           2.1366333    -0.0865036    -0.7509460
C           5.6896531     1.2508231     0.8029442
H           6.6566871     1.5781419     1.1712094
C           4.5207914     1.9486029     1.1140701
H           4.5529672     2.8374535     1.7375874
C           3.3061096     1.4852423     0.6152085
H           2.3635418     1.9787497     0.8223696
C           3.3403356     0.3408769    -0.1803284
N           4.4281928    -0.3393368    -0.4939059
C           5.5885971     0.1148593     0.0013472
H           6.4736752    -0.4591039    -0.2645137
15
266_C6H4F3NO_0-4-11-9 (-90,) energy =    -660.5442630
C           1.4849383    -1.1125850    -0.2277173
F           2.2083795    -2.2133135     0.0270445
F           0.4567201    -1.4404755    -1.0083387
F           0.9986739    -0.6767873     0.9566954
O           2.1970778    -0.1492354    -0.8670121
C           5.6803714     1.2369990     0.8006003
H           6.6329150     1.5764225     1.1948204
C           4.4823047     1.8525846     1.1678888
H           4.4765381     2.6895686     1.8601529
C           3.2882169     1.3784743     0.6302310
H           2.3260092     1.8138104     0.8730229
C           3.3717002     0.3010545    -0.2507082
N           4.4880763    -0.2994175    -0.6205233
C           5.6287369     0.1689235    -0.0940374
H           6.5386305    -0.3374137    -0.4089514
15
266_C6H4F3NO_0-4-11-9 (-75,) energy =    -660.5443974
C           1.4473278    -1.0108910    -0.1943184
F           2.0940110    -2.0362696     0.3837063
F           0.5259663    -1.4903654    -1.0272813
F           0.8112505    -0.3398780     0.7950102
O           2.2751531    -0.2090533    -0.9093176
C           5.7245721     1.2427834     0.7770092
H           6.6710596     1.5983320     1.1714896
C           4.5112636     1.7853151     1.2040259
H           4.4866757     2.5814288     1.9426081
C           3.3243366     1.2976641     0.6626888
H           2.3547953     1.6872118     0.9476534
C           3.4297832     0.2727077    -0.2780121
N           4.5610376    -0.2567104    -0.7051309
C           5.6946272     0.2295320    -0.1798648
H           6.6162090    -0.2175315    -0.5464088
15
266_C6H4F3NO_0-4-11-9 (-60,) energy =    -660.5444487
C           1.4175234    -0.9615445    -0.1823789
F           1.9547493    -1.8465175     0.6750467
F           0.6044245    -1.6024702    -1.0191300
F           0.6655884    -0.1073552     0.5532698
O           2.3552294    -0.3231950    -0.9234665
C           5.7480975     1.2597335     0.7624174
H           6.6839559     1.6473110     1.1518700
C           4.5178821     1.7124644     1.2420581
H           4.4688890     2.4714321     2.0176154
C           3.3441043     1.1895330     0.7053679
H           2.3661362     1.5201028     1.0311429
C           3.4792228     0.2132686    -0.2837494
N           4.6272236    -0.2303027    -0.7608857
C           5.7463970     0.2942797    -0.2425086
H           6.6800240    -0.0830932    -0.6542566
15
266_C6H4F3NO_0-4-11-9 (-45,) energy =    -660.5445916
C           1.3730914    -0.8992167    -0.2016669
F           1.7717854    -1.6337890     0.8515652
F           0.6248853    -1.6548590    -1.0018929
F           0.5877214     0.0930773     0.2821852
O           2.4143826    -0.4304475    -0.9309115
C           5.7513802     1.2744264     0.7473352
H           6.6761911     1.6926788     1.1311560
C           4.5120637     1.6433758     1.2727011
H           4.4439239     2.3666916     2.0802840
C           3.3513239     1.0862392     0.7426902
H           2.3700757     1.3595505     1.1081224
C           3.5086259     0.1574458    -0.2891883
N           4.6660638    -0.2076400    -0.8087825
C           5.7706018     0.3520887    -0.2967057
H           6.7103988     0.0388425    -0.7465613
15
266_C6H4F3NO_0-4-11-9 (-30,) energy =    -660.5447705
C           1.3339375    -0.8857508    -0.1719679
F           1.6013157    -1.4709891     1.0096954
F           0.6108908    -1.7197963    -0.9147362
F           0.5746825     0.2041034     0.0881672
O           2.4572348    -0.5850877    -0.8679701
C           5.7386624     1.3010807     0.7229457
H           6.6525611     1.7621569     1.0829636
C           4.5001116     1.5922671     1.2959516
H           4.4207702     2.2968355     2.1189309
C           3.3521289     0.9809722     0.7986692
H           2.3747071     1.1996578     1.2075494
C           3.5218913     0.0781922    -0.2550960
N           4.6799454    -0.2138734    -0.8191561
C           5.7694869     0.3976370    -0.3370808
H           6.7079270     0.1415580    -0.8244734
15
266_C6H4F3NO_0-4-11-9 (-15,) energy =    -660.5448564
C           1.3264989    -0.8407275    -0.2150366
F           1.4344712    -1.3262749     1.0367558
F           0.6054592    -1.6896985    -0.9420136
F           0.6472555     0.3246210    -0.1315217
O           2.5287913    -0.7012439    -0.8244272
C           5.7488317     1.3356612     0.7037043
H           6.6491872     1.8352187     1.0458495
C           4.5139683     1.5595413     1.3130988
H           4.4240068     2.2471311     2.1492281
C           3.3819668     0.8996003     0.8414159
H           2.4111260     1.0658886     1.2879160
C           3.5633813     0.0242205    -0.2339866
N           4.7192836    -0.2045696    -0.8320612
C           5.7927370     0.4469408    -0.3682000
H           6.7284488     0.2397766    -0.8833705
15
266_C6H4F3NO_0-4-11-9 (0,) energy =    -660.5448722
C           1.3049926    -0.8028215    -0.2413476
F           1.2494698    -1.1913432     1.0493039
F           0.5761687    -1.6460070    -0.9673144
F           0.7408132     0.4204948    -0.3121382
O           2.5659365    -0.8235518    -0.7370012
C           5.7374693     1.3685660     0.6734104
H           6.6255284     1.9098377     0.9824530
C           4.5166245     1.5355163     1.3271975
H           4.4257477     2.2171196     2.1681281
C           3.4001292     0.8215337     0.8990220
H           2.4444695     0.9360421     1.3916413
C           3.5799654    -0.0399517    -0.1881197
N           4.7239706    -0.2175861    -0.8258459
C           5.7836173     0.4786433    -0.3974472
H           6.7096243     0.3098675    -0.9432409
15
266_C6H4F3NO_0-4-11-9 (15,) energy =    -660.5448564
C           1.3032058    -0.7669088    -0.2773862
F           1.0797041    -1.0457526     1.0259467
F           0.5795893    -1.6077144    -1.0112598
F           0.8622202     0.4871299    -0.4949119
O           2.6011584    -0.9305613    -0.6307367
C           5.7272227     1.4041432     0.6458624
H           6.6019725     1.9848425     0.9194724
C           4.5267693     1.5189812     1.3473579
H           4.4402030     2.1958124     2.1925745
C           3.4280770     0.7534869     0.9648292
H           2.4904897     0.8143976     1.5003347
C           3.6010313    -0.0950827    -0.1332182
N           4.7261601    -0.2263546    -0.8136605
C           5.7721010     0.5123399    -0.4234381
H           6.6843801     0.3794315    -1.0013278
15
266_C6H4F3NO_0-4-11-9 (30,) energy =    -660.5447705
C           1.2814903    -0.7195465    -0.3123505
F           0.9085531    -0.8538891     0.9817865
F           0.5659267    -1.5773039    -1.0350912
F           0.9683148     0.5349236    -0.6845726
O           2.5907022    -1.0080243    -0.5107417
C           5.7004750     1.4220987     0.6207304
H           6.5686289     2.0281350     0.8583098
C           4.5308694     1.4948049     1.3782728
H           4.4635335     2.1613291     2.2333858
C           3.4424133     0.6948769     1.0403167
H           2.5282701     0.7130394     1.6185660
C           3.5890949    -0.1347621    -0.0752263
N           4.6841102    -0.2270647    -0.8080136
C           5.7250916     0.5383273    -0.4559123
H           6.6146034     0.4372968    -1.0742645
15
266_C6H4F3NO_0-4-11-9 (45,) energy =    -660.5445916
C           1.3203881    -0.7321996    -0.3427361
F           0.8244615    -0.6571198     0.9158290
F           0.6266171    -1.6603394    -0.9972647
F           1.1098797     0.4637202    -0.9200694
O           2.6248978    -1.0975388    -0.3674612
C           5.6953450     1.4520007     0.5973509
H           6.5513056     2.0884315     0.7968905
C           4.5661364     1.4720299     1.4174272
H           4.5198248     2.1261739     2.2834353
C           3.4948017     0.6315795     1.1267133
H           2.6090438     0.6022921     1.7477311
C           3.6149007    -0.1793205    -0.0047423
N           4.6708733    -0.2228739    -0.7959143
C           5.6983560     0.5810340    -0.4900800
H           6.5581376     0.5213481    -1.1541017
15
266_C6H4F3NO_0-4-11-9 (60,) energy =    -660.5444487
C           1.3325700    -0.6923308    -0.4097668
F           0.7442921    -0.3567533     0.7639204
F           0.6317096    -1.6889263    -0.9461066
F           1.2505915     0.3848834    -1.2096771
O           2.6073901    -1.1222565    -0.2485491
C           5.6828737     1.4664265     0.5878382
H           6.5363338     2.1151144     0.7567476
C           4.6043770     1.4383776     1.4735632
H           4.5969365     2.0656693     2.3603389
C           3.5353077     0.5836369     1.2171310
H           2.6840628     0.5126346     1.8820885
C           3.6065613    -0.1902460     0.0570748
N           4.6143273    -0.1894287    -0.7954084
C           5.6407501     0.6290695    -0.5252831
H           6.4615109     0.6093573    -1.2391243
15
266_C6H4F3NO_0-4-11-9 (75,) energy =    -660.5443974
C           1.3454325    -0.6879904    -0.4670524
F           0.7219276    -0.0568173     0.5559266
F           0.6032929    -1.7353977    -0.8203175
F           1.3941620     0.1814754    -1.4894847
O           2.5716854    -1.1487224    -0.1156379
C           5.6517412     1.4735813     0.5820704
H           6.5020347     2.1339577     0.7190823
C           4.6350286     1.3931222     1.5352877
H           4.6731153     1.9906264     2.4416228
C           3.5679028     0.5258353     1.3146048
H           2.7566901     0.4136576     2.0233449
C           3.5815576    -0.2082418     0.1282166
N           4.5298252    -0.1577951    -0.7886772
C           5.5537080     0.6760951    -0.5570470
H           6.3261949     0.7014974    -1.3226527
15
266_C6H4F3NO_0-4-11-9 (90,) energy =    -660.5442630
C           1.3533295    -0.6955276    -0.5799782
F           0.7239351     0.1938299     0.2213407
F           0.5534513    -1.7469995    -0.7494371
F           1.5392047    -0.0927705    -1.7640426
O           2.5105709    -1.1426534    -0.0279329
C           5.6034459     1.4807722     0.5947010
H           6.4535933     2.1446777     0.7148512
C           4.6432948     1.3424321     1.5987836
H           4.7259823     1.8991158     2.5277997
C           3.5734268     0.4746836     1.3936077
H           2.7970823     0.3210417     2.1338727
C           3.5316949    -0.2059450     0.1775238
N           4.4251339    -0.0999559    -0.7889949
C           5.4487206     0.7393790    -0.5758648
H           6.1749876     0.8149325    -1.3822657
15
266_C6H4F3NO_0-4-11-9 (105,) energy =    -660.5442807
C           1.3636070    -0.6581064    -0.6470731
F           0.8281511     0.4755746    -0.1464437
F           0.4515257    -1.6282046    -0.5742796
F           1.6442376    -0.4289560    -1.9369322
O           2.4444773    -1.0620206     0.0730131
C           5.6158313     1.4847608     0.6053517
H           6.4822949     2.1307757     0.7044344
C           4.7268039     1.2957793     1.6654696
H           4.8815352     1.7962662     2.6170135
C           3.6309389     0.4559017     1.4846287
H           2.9028036     0.2698970     2.2657309
C           3.4969450    -0.1553948     0.2388417
N           4.3207028     0.0012913    -0.7816128
C           5.3661236     0.8198570    -0.5941202
H           6.0323361     0.9394530    -1.4457872
15
266_C6H4F3NO_0-4-11-9 (120,) energy =    -660.5448605
C           1.3917727    -0.6932080    -0.6851985
F           0.9991784     0.5890330    -0.5540738
F           0.3576826    -1.4887294    -0.4008830
F           1.7296401    -0.8846468    -1.9665621
O           2.3914597    -1.0061437     0.1862381
C           5.6115261     1.4948965     0.6203580
H           6.4836058     2.1365869     0.6942170
C           4.7991783     1.2433037     1.7283948
H           5.0215702     1.6900667     2.6931923
C           3.6888737     0.4171567     1.5782678
H           3.0143605     0.1895560     2.3957135
C           3.4675139    -0.1253681     0.3129561
N           4.2160604     0.0925441    -0.7527961
C           5.2730104     0.9027288    -0.5947837
H           5.8737265     1.0757525    -1.4850945
15
266_C6H4F3NO_0-4-11-9 (135,) energy =    -660.5458479
C           1.3943361    -0.6940229    -0.7714915
F           1.0919006     0.6076066    -0.9189046
F           0.2820308    -1.3568350    -0.4402983
F           1.8184078    -1.1570045    -1.9531423
O           2.2926492    -0.8986342     0.2362866
C           5.6007196     1.4869079     0.6272746
H           6.4917051     2.1029794     0.6916633
C           4.8399764     1.1884495     1.7607910
H           5.1229089     1.5728547     2.7365530
C           3.7019232     0.3998439     1.6237971
H           3.0637419     0.1428803     2.4614599
C           3.4019348    -0.0642383     0.3424777
N           4.0989201     0.2009785    -0.7470132
C           5.1832290     0.9765389    -0.5995685
H           5.7389983     1.1893285    -1.5101955
15
266_C6H4F3NO_0-4-11-9 (150,) energy =    -660.5468282
C           1.4027104    -0.7106965    -0.8050898
F           1.1344581     0.5526790    -1.1681369
F           0.2546954    -1.3134373    -0.4791885
F           1.9228478    -1.3500887    -1.8586720
O           2.2012966    -0.7705909     0.3039123
C           5.6114118     1.4736767     0.6243749
H           6.5241095     2.0585698     0.6719303
C           4.8958947     1.1458040     1.7801142
H           5.2386000     1.4752655     2.7568418
C           3.7278939     0.4006636     1.6661421
H           3.1239264     0.1239965     2.5227173
C           3.3482511     0.0077377     0.3803097
N           4.0013249     0.3009268    -0.7283752
C           5.1186593     1.0330865    -0.6004092
H           5.6363237     1.2685642    -1.5277104
15
266_C6H4F3NO_0-4-11-9 (165,) energy =    -660.5474738
C           1.4016545    -0.7049331    -0.8275654
F           1.1372334     0.4916762    -1.3691311
F           0.2419747    -1.2958422    -0.5213117
F           2.0255308    -1.4570003    -1.7410427
O           2.1010312    -0.6039116     0.3449797
C           5.6301590     1.4498327     0.6248488
H           6.5705140     1.9896884     0.6639903
C           4.9415389     1.0998988     1.7912520
H           5.3355091     1.3653456     2.7681188
C           3.7386723     0.4122774     1.6896998
H           3.1562554     0.1189285     2.5556290
C           3.2918962     0.1027400     0.4015007
N           3.9174141     0.4178318    -0.7163546
C           5.0742018     1.0886096    -0.5979843
H           5.5695336     1.3403603    -1.5331267
15
266_C6H4F3NO_0-4-11-9 (180,) energy =    -660.5476939
C           1.6088239    -1.3252187    -0.3209328
F           2.1886009    -1.6918540    -1.4702290
F           0.2827254    -1.3909336    -0.4795663
F           1.9624607    -2.1951559     0.6325920
O           1.8879235    -0.0284654     0.0187060
C           5.6935296     1.2878930     0.7448934
H           6.7140015     1.6058669     0.9310524
C           4.6228154     2.1833856     0.8426138
H           4.7915280     3.2229328     1.1087623
C           3.3334261     1.7304389     0.5949783
H           2.4638711     2.3749326     0.6549554
C           3.1893315     0.3808714     0.2573643
N           4.1774235    -0.4870749     0.1569605
C           5.4163500    -0.0307118     0.4005280
H           6.2138801    -0.7650724     0.3115461
