15
266_C6H4F3NO_1-0-4-11 (-165,) energy =    -660.5471031
C           1.6302306    -0.6605478    -0.8096262
F           0.3592056    -0.9486021    -0.5087546
F           2.1654120    -1.7120963    -1.4392905
F           1.6329013     0.3848888    -1.6478727
O           2.2553106    -0.3848881     0.3765800
C           5.9171395     1.4335030     0.5564756
H           6.8985010     1.8959841     0.5732547
C           5.0824093     1.4555119     1.6785585
H           5.4004654     1.9414527     2.5965166
C           3.8324468     0.8523408     1.6076952
H           3.1380929     0.8420480     2.4400383
C           3.4895102     0.2456399     0.3962652
N           4.2565574     0.2018741    -0.6766896
C           5.4555248     0.7990794    -0.5925729
H           6.0671795     0.7557766    -1.4910698
15
266_C6H4F3NO_1-0-4-11 (-150,) energy =    -660.5454995
C           1.6165290    -0.6597205    -0.7761629
F           0.3357584    -0.7809432    -0.4048631
F           1.9507576    -1.7348997    -1.4982662
F           1.7169604     0.4250715    -1.5570148
O           2.3570168    -0.5614567     0.3699784
C           5.9004714     1.4788231     0.5553734
H           6.8549502     1.9946636     0.5729949
C           5.0487725     1.4869525     1.6636171
H           5.3243984     2.0153287     2.5717976
C           3.8332308     0.8152367     1.5896190
H           3.1258877     0.7923436     2.4106877
C           3.5443897     0.1569873     0.3927404
N           4.3323680     0.1199582    -0.6662664
C           5.4932546     0.7867554    -0.5822727
H           6.1224837     0.7518322    -1.4689506
15
266_C6H4F3NO_1-0-4-11 (-135,) energy =    -660.5436217
C           1.6072009    -0.6558849    -0.7643489
F           0.3485762    -0.5839881    -0.3045736
F           1.7207243    -1.7737817    -1.4905471
F           1.8082680     0.3974136    -1.5666148
O           2.4464853    -0.6815043     0.3141272
C           5.8935799     1.5135647     0.5638533
H           6.8268304     2.0662058     0.5981277
C           5.0171484     1.4996511     1.6517097
H           5.2506730     2.0467384     2.5606066
C           3.8300705     0.7798691     1.5555147
H           3.1053761     0.7365211     2.3604689
C           3.5955357     0.0989445     0.3603979
N           4.4101831     0.0810818    -0.6793569
C           5.5409374     0.7942609    -0.5760109
H           6.1926796     0.7751999    -1.4468242
15
266_C6H4F3NO_1-0-4-11 (-120,) energy =    -660.5424087
C           1.5966321    -0.6534175    -0.7578314
F           0.4005428    -0.4092616    -0.1929014
F           1.4910947    -1.7871050    -1.4588835
F           1.8600936     0.3522763    -1.6009760
O           2.5310828    -0.7972633     0.2267339
C           5.8726765     1.5459106     0.5750629
H           6.7828531     2.1338788     0.6345847
C           4.9671944     1.5011770     1.6372420
H           5.1531577     2.0585079     2.5508759
C           3.8125334     0.7339944     1.5086745
H           3.0683473     0.6618721     2.2935790
C           3.6391895     0.0417090     0.3104287
N           4.4825224     0.0546478    -0.7065048
C           5.5813419     0.8107916    -0.5727947
H           6.2588373     0.8155229    -1.4239792
15
266_C6H4F3NO_1-0-4-11 (-105,) energy =    -660.5422140
C           1.5841591    -0.6356699    -0.7169742
F           0.4999288    -0.2328394    -0.0242756
F           1.2530684    -1.7535294    -1.3688421
F           1.8708490     0.3199042    -1.6100380
O           2.6108602    -0.9055296     0.1373954
C           5.8486217     1.5695946     0.5735714
H           6.7338729     2.1924295     0.6524697
C           4.9116567     1.5061534     1.6066115
H           5.0474225     2.0829199     2.5169862
C           3.7922637     0.6918859     1.4525478
H           3.0272606     0.5989637     2.2150377
C           3.6833971    -0.0208181     0.2593963
N           4.5565799     0.0109733    -0.7312985
C           5.6232368     0.8070946    -0.5718689
H           6.3287088     0.8252067    -1.3998327
15
266_C6H4F3NO_1-0-4-11 (-90,) energy =    -660.5436900
C           1.3268139    -0.7502141    -0.3367903
F           0.7199265    -0.8746558     0.8653532
F           0.6878978    -1.5495964    -1.1913659
F           1.1763078     0.5230792    -0.7375795
O           2.6257526    -1.1404071    -0.2838327
C           5.6823097     1.4592265     0.5699958
H           6.5333489     2.1090580     0.7461932
C           4.5525779     1.5019399     1.3900333
H           4.5016532     2.1873780     2.2311500
C           3.4900368     0.6428382     1.1273891
H           2.6006546     0.6225305     1.7461156
C           3.6184327    -0.2074135     0.0263800
N           4.6727964    -0.2742224    -0.7631344
C           5.6936570     0.5497286    -0.4850766
H           6.5547574     0.4735226    -1.1455735
15
266_C6H4F3NO_1-0-4-11 (-75,) energy =    -660.5447345
C           1.3135201    -0.7849877    -0.2559882
F           0.9602252    -0.9791226     1.0355090
F           0.5991766    -1.6215668    -1.0049832
F           0.9788979     0.4784684    -0.5741225
O           2.6238271    -1.0508508    -0.4788293
C           5.7102336     1.4270049     0.6083003
H           6.5724600     2.0451120     0.8359994
C           4.5402905     1.5017933     1.3654219
H           4.4667243     2.1821464     2.2090517
C           3.4594183     0.6862780     1.0414302
H           2.5454379     0.7047899     1.6203069
C           3.6146002    -0.1619823    -0.0589456
N           4.7099699    -0.2569968    -0.7904759
C           5.7433417     0.5255627    -0.4532902
H           6.6339048     0.4220432    -1.0697268
15
266_C6H4F3NO_1-0-4-11 (-60,) energy =    -660.5448719
C           1.3078685    -0.8002904    -0.2440667
F           1.2620792    -1.1949455     1.0450732
F           0.5802280    -1.6442394    -0.9700471
F           0.7355869     0.4200654    -0.3064364
O           2.5658209    -0.8110877    -0.7472268
C           5.7412758     1.3661719     0.6766499
H           6.6304707     1.9035614     0.9890095
C           4.5190316     1.5374169     1.3267951
H           4.4279884     2.2185630     2.1679892
C           3.4009630     0.8286060     0.8941420
H           2.4434681     0.9463394     1.3823154
C           3.5811850    -0.0328436    -0.1929650
N           4.7262691    -0.2144341    -0.8272470
C           5.7872700     0.4774041    -0.3950727
H           6.7141447     0.3057757    -0.9383332
15
266_C6H4F3NO_1-0-4-11 (-45,) energy =    -660.5447024
C           1.3454757    -0.8566144    -0.2150785
F           1.6148987    -1.4090017     0.9818654
F           0.6470921    -1.7216817    -0.9451492
F           0.5610969     0.2220503     0.0161128
O           2.4662451    -0.5403542    -0.9086871
C           5.7527021     1.2932505     0.7302255
H           6.6673272     1.7428730     1.1026542
C           4.5128133     1.5830584     1.3016650
H           4.4334920     2.2744889     2.1356945
C           3.3643358     0.9873230     0.7875857
H           2.3850962     1.2058507     1.1929691
C           3.5348080     0.1018980    -0.2805692
N           4.6932546    -0.1881917    -0.8439061
C           5.7841880     0.4075778    -0.3446005
H           6.7238025     0.1547485    -0.8314122
15
266_C6H4F3NO_1-0-4-11 (-30,) energy =    -660.5436117
C           1.3637638    -0.8820895    -0.2218706
F           1.8035411    -1.4385089     0.9204341
F           0.7671660    -1.8126121    -0.9633088
F           0.4292578     0.0340242     0.1251478
O           2.3597832    -0.3207250    -0.9529286
C           5.7482229     1.2372662     0.7551411
H           6.6830820     1.6226726     1.1489751
C           4.5192022     1.6148815     1.3007693
H           4.4705249     2.3106701     2.1334898
C           3.3475825     1.0990054     0.7557042
H           2.3684834     1.3752080     1.1289360
C           3.4829964     0.2044737    -0.3085554
N           4.6273949    -0.1678592    -0.8479441
C           5.7455310     0.3515510    -0.3200423
H           6.6774904     0.0352236    -0.7836868
15
266_C6H4F3NO_1-0-4-11 (-15,) energy =    -660.5422047
C           1.4690010    -1.0575202    -0.2988406
F           2.2884151    -1.9443288     0.2794439
F           0.9374996    -1.6040607    -1.3951811
F           0.4624735    -0.8166590     0.5659731
O           2.0835122     0.1114506    -0.6348899
C           5.7763442     1.1801982     0.7857111
H           6.7765406     1.4429911     1.1148528
C           4.6550426     1.8662696     1.2558622
H           4.7581698     2.6815391     1.9662204
C           3.3940245     1.4872050     0.8023079
H           2.4839543     1.9771463     1.1293402
C           3.3353553     0.4344413    -0.1098107
N           4.3777026    -0.2270720    -0.5798022
C           5.5835280     0.1427275    -0.1257208
H           6.4296745    -0.4166875    -0.5189919
15
266_C6H4F3NO_1-0-4-11 (0,) energy =    -660.5424170
C           1.4811767    -1.0907699    -0.3043681
F           2.2881223    -1.9451382     0.3351527
F           1.1557437    -1.6177716    -1.4908443
F           0.3489134    -0.9730642     0.4107268
O           2.0271953     0.1479301    -0.4796438
C           5.7923882     1.1909019     0.7516772
H           6.8086689     1.4483953     1.0319737
C           4.6994347     1.9087164     1.2420247
H           4.8428780     2.7445020     1.9208417
C           3.4157698     1.5347941     0.8536534
H           2.5263919     2.0470633     1.2024785
C           3.3058891     0.4548341    -0.0220322
N           4.3201533    -0.2355666    -0.5120487
C           5.5482300     0.1276533    -0.1158141
H           6.3693146    -0.4583517    -0.5231686
15
266_C6H4F3NO_1-0-4-11 (15,) energy =    -660.5435909
C           1.4849557    -1.0820401    -0.3297048
F           2.2412125    -1.9294236     0.3776570
F           1.3688846    -1.5637313    -1.5747731
F           0.2585368    -1.0526672     0.2114758
O           1.9711077     0.1951843    -0.3467453
C           5.7968118     1.1914361     0.7192519
H           6.8260926     1.4359840     0.9608040
C           4.7329982     1.9389933     1.2302547
H           4.9133516     2.7855470     1.8865672
C           3.4309434     1.5807442     0.8942697
H           2.5634541     2.1150355     1.2644433
C           3.2728361     0.4849181     0.0450645
N           4.2577421    -0.2324354    -0.4652142
C           5.5047825     0.1158750    -0.1168252
H           6.3007138    -0.4937924    -0.5390084
15
266_C6H4F3NO_1-0-4-11 (30,) energy =    -660.5454002
C           1.4991173    -1.0892208    -0.3407178
F           2.1768169    -1.9499178     0.4292505
F           1.5915569    -1.5070346    -1.6107953
F           0.2088341    -1.1206014     0.0110414
O           1.9246994     0.2034562    -0.2033333
C           5.7958421     1.1926739     0.6861511
H           6.8347549     1.4336884     0.8862125
C           4.7557252     1.9622849     1.2146483
H           4.9657299     2.8228250     1.8433818
C           3.4403320     1.6087451     0.9333926
H           2.5906998     2.1593062     1.3207367
C           3.2438849     0.4925745     0.1180641
N           4.2041874    -0.2464869    -0.4066193
C           5.4659391     0.0997660    -0.1112990
H           6.2410830    -0.5280781    -0.5452512
15
266_C6H4F3NO_1-0-4-11 (45,) energy =    -660.5470005
C           1.5183506    -1.1175791    -0.3550080
F           2.1106944    -2.0495760     0.4023876
F           1.7753111    -1.3969009    -1.6394809
F           0.1965589    -1.1896437    -0.1700038
O           1.8914521     0.1551387    -0.0171396
C           5.7926216     1.2029850     0.6403114
H           6.8371670     1.4584460     0.7849489
C           4.7692879     1.9885499     1.1804787
H           5.0002935     2.8763163     1.7622553
C           3.4461014     1.6186023     0.9711232
H           2.6098089     2.1816079     1.3694350
C           3.2226140     0.4662321     0.2127362
N           4.1652166    -0.2910562    -0.3161756
C           5.4368789     0.0756291    -0.0936068
H           6.1962025    -0.5673692    -0.5332554
15
266_C6H4F3NO_1-0-4-11 (60,) energy =    -660.5476873
C           1.5261343    -1.0979503    -0.3819685
F           2.0346768    -2.1712375     0.2351103
F           1.8688828    -1.1466393    -1.6748127
F           0.1930206    -1.1571090    -0.2982702
O           1.8933105     0.0777239     0.2163610
C           5.8004134     1.2321122     0.6000486
H           6.8455729     1.5110444     0.6836250
C           4.7871247     2.0368898     1.1323885
H           5.0267294     2.9643423     1.6446204
C           3.4632302     1.6381119     1.0008609
H           2.6351659     2.2177421     1.3925548
C           3.2269999     0.4340013     0.3296812
N           4.1591135    -0.3456111    -0.1831414
C           5.4327488     0.0558007    -0.0443165
H           6.1829084    -0.6040909    -0.4744723
15
266_C6H4F3NO_1-0-4-11 (75,) energy =    -660.5472335
C           1.5176616    -1.0904671    -0.3659002
F           1.9259765    -2.2884648     0.0691326
F           1.9191240    -0.9307899    -1.6321548
F           0.1795414    -1.0790461    -0.3422794
O           1.9225988    -0.0703163     0.4526911
C           5.7918070     1.2587389     0.5500527
H           6.8291748     1.5761316     0.5689604
C           4.7736626     2.0662304     1.0677441
H           5.0012306     3.0360006     1.5010201
C           3.4594475     1.6178269     1.0182704
H           2.6271140     2.1999625     1.3969700
C           3.2394556     0.3607483     0.4477813
N           4.1779023    -0.4263033    -0.0432981
C           5.4399146     0.0281052     0.0049126
H           6.1949945    -0.6354851    -0.4107218
15
266_C6H4F3NO_1-0-4-11 (90,) energy =    -660.5457480
C           1.5000785    -1.0663600    -0.3614568
F           1.7313680    -2.3436989    -0.0339452
F           1.9957601    -0.8341299    -1.5823252
F           0.1717953    -0.8951589    -0.4072590
O           1.9742435    -0.2010968     0.5867518
C           5.7869225     1.2859370     0.5170585
H           6.8122072     1.6405870     0.4964460
C           4.7531821     2.0784180     1.0243922
H           4.9546294     3.0740344     1.4092394
C           3.4545752     1.5810472     1.0241697
H           2.6095030     2.1497888     1.3948586
C           3.2687274     0.2940786     0.5153389
N           4.2247447    -0.4833829     0.0408647
C           5.4685642     0.0191307     0.0348877
H           6.2390880    -0.6339017    -0.3690508
15
266_C6H4F3NO_1-0-4-11 (105,) energy =    -660.5438790
C           1.4839352    -1.0539043    -0.3368888
F           1.5089401    -2.3643984    -0.0629356
F           2.0640918    -0.8450845    -1.5232789
F           0.1946994    -0.6909873    -0.4330403
O           2.0407754    -0.3273885     0.6787829
C           5.7837623     1.3216077     0.4947636
H           6.7939866     1.7150743     0.4484123
C           4.7287194     2.0854857     1.0001152
H           4.8968806     3.0973124     1.3576765
C           3.4503695     1.5368228     1.0334221
H           2.5896320     2.0809207     1.4050342
C           3.3074863     0.2316512     0.5608497
N           4.2864682    -0.5202591     0.0904134
C           5.5081981     0.0307981     0.0491466
H           6.2978875    -0.6010993    -0.3514946
15
266_C6H4F3NO_1-0-4-11 (120,) energy =    -660.5425396
C           1.4709620    -1.0498878    -0.2993420
F           1.2866382    -2.3537386    -0.0633317
F           2.1073361    -0.9047249    -1.4665004
F           0.2538682    -0.4895602    -0.4202870
O           2.1174442    -0.4680938     0.7534148
C           5.7731870     1.3577431     0.4719172
H           6.7639328     1.7950482     0.4023899
C           4.6921899     2.0851208     0.9746400
H           4.8191644     3.1113814     1.3071774
C           3.4406955     1.4787060     1.0389610
H           2.5613308     1.9904800     1.4129354
C           3.3508827     0.1584440     0.5983760
N           4.3564796    -0.5591470     0.1300502
C           5.5511607     0.0450265     0.0595187
H           6.3642365    -0.5591403    -0.3372485
15
266_C6H4F3NO_1-0-4-11 (135,) energy =    -660.5436217
C           1.5991685    -0.6435068    -0.7393284
F           0.6041426    -1.2538687    -0.0774728
F           2.5481732    -1.5571707    -0.9804042
F           1.1155164    -0.2110212    -1.9093643
O           2.0358045     0.3991282     0.0290656
C           5.9889184     1.2749055     0.6366015
H           7.0390172     1.5225563     0.7528174
C           5.1227400     1.2501171     1.7324433
H           5.4837156     1.4773468     2.7314397
C           3.7856836     0.9210306     1.5312205
H           3.0660614     0.8762027     2.3406311
C           3.3903356     0.6430789     0.2222528
N           4.1812227     0.6720638    -0.8354372
C           5.4699542     0.9737201    -0.6207816
H           6.1064990     0.9816379    -1.5029343
15
266_C6H4F3NO_1-0-4-11 (150,) energy =    -660.5454995
C           1.6151032    -0.6546373    -0.7606692
F           0.5005047    -1.2046851    -0.2626331
F           2.5078006    -1.6361364    -0.9512844
F           1.3237398    -0.1096006    -1.9469209
O           2.0371899     0.2810635     0.1437229
C           5.9737129     1.3009200     0.6092741
H           7.0186647     1.5816813     0.6910081
C           5.1361068     1.2817499     1.7280734
H           5.5159665     1.5468090     2.7106173
C           3.8051843     0.9093932     1.5724562
H           3.1084984     0.8656497     2.4017495
C           3.3849740     0.5826542     0.2817593
N           4.1473856     0.6031484    -0.7962396
C           5.4319332     0.9491453    -0.6243188
H           6.0446369     0.9497230    -1.5231738
15
266_C6H4F3NO_1-0-4-11 (165,) energy =    -660.5471031
C           1.6217409    -0.6480911    -0.7845821
F           0.4206893    -1.1144918    -0.4255017
F           2.4208336    -1.6967400    -1.0241335
F           1.4841299     0.0494615    -1.9173390
O           2.0640114     0.1229237     0.2564438
C           5.9582256     1.3364409     0.5885685
H           6.9918468     1.6625438     0.6388112
C           5.1403444     1.3310302     1.7231903
H           5.5260937     1.6535412     2.6860662
C           3.8236266     0.9013364     1.6097847
H           3.1430399     0.8674256     2.4528025
C           3.3946614     0.5016219     0.3411368
N           4.1388317     0.5017583    -0.7486860
C           5.4106378     0.9097839    -0.6172554
H           6.0062800     0.8950563    -1.5273580
15
266_C6H4F3NO_1-0-4-11 (180,) energy =    -660.5476948
C           1.6306637    -0.6582961    -0.8137379
F           0.3865014    -1.0503763    -0.5202966
F           2.3169453    -1.7236317    -1.2443202
F           1.5656098     0.2378014    -1.8058168
O           2.1456909    -0.1307136     0.3400254
C           5.9395406     1.3862018     0.5695191
H           6.9499241     1.7805712     0.5971554
C           5.1215791     1.3967948     1.7047252
H           5.4834178     1.8031303     2.6448876
C           3.8349893     0.8804744     1.6201626
H           3.1549515     0.8607806     2.4641107
C           3.4349732     0.3739497     0.3793442
N           4.1813468     0.3496222    -0.7077766
C           5.4218097     0.8530818    -0.6059496
H           6.0175714     0.8217947    -1.5155074
