23
447_C10H10N2O_4-6-19-17 (-165,) energy =    -571.7721002
C           5.4248127     1.0829506    -0.4298913
H           6.1928902     1.7538309    -0.8038912
C           5.0012619     1.1543627     0.8939896
H           5.4309671     1.8833329     1.5743506
C           4.0199500     0.2799039     1.3541353
H           3.6713105     0.3186819     2.3781177
C           3.4439641    -0.6737480     0.5084992
C           3.8659291    -0.7356962    -0.8406149
O           3.2659821    -1.6617664    -1.6506926
C           3.6101370    -1.6887600    -3.0280394
H           2.9848975    -2.4644319    -3.4737235
H           4.6668694    -1.9458793    -3.1750472
H           3.3985652    -0.7274640    -3.5127593
C           4.8583966     0.1419992    -1.2899661
H           5.1892852     0.0969939    -2.3205925
C           0.9635336    -3.1185078     1.4633679
H           0.3538612    -4.0079695     1.3974037
C           1.9013275    -2.6874893     0.5518635
H           2.2388648    -3.1060268    -0.3789602
N           2.4315697    -1.5209143     1.0403637
N           1.8642921    -1.1804016     2.2345902
C           0.9847322    -2.1418240     2.4837764
H           0.3926809    -2.0953400     3.3889245
23
447_C10H10N2O_4-6-19-17 (-150,) energy =    -571.7725108
C           5.4641326     1.0468074    -0.4125487
H           6.2461058     1.7062989    -0.7781438
C           5.0488633     1.1084679     0.9147770
H           5.4998674     1.8167930     1.6030399
C           4.0508888     0.2468778     1.3662064
H           3.7041722     0.2766176     2.3919338
C           3.4520111    -0.6736053     0.5031994
C           3.8645533    -0.7271124    -0.8476348
O           3.2332769    -1.6311801    -1.6565692
C           3.5432800    -1.6342963    -3.0423334
H           2.8885893    -2.3839409    -3.4901209
H           4.5897207    -1.9128717    -3.2216161
H           3.3441285    -0.6567732    -3.4991616
C           4.8754994     0.1330922    -1.2885530
H           5.2021562     0.0986560    -2.3211229
C           1.0626486    -3.1831956     1.4898986
H           0.5425368    -4.1301130     1.4816745
C           2.0625060    -2.7772059     0.6340568
H           2.5413042    -3.2687107    -0.1953624
N           2.4201976    -1.5097099     1.0089447
N           1.6945049    -1.0799243     2.0808832
C           0.8777687    -2.0879724     2.3639467
H           0.1783711    -1.9882089     3.1842130
23
447_C10H10N2O_4-6-19-17 (-135,) energy =    -571.7720379
C           5.4849041     1.0177674    -0.4015351
H           6.2829012     1.6625825    -0.7588734
C           5.0828390     1.0657518     0.9307195
H           5.5616497     1.7460361     1.6283477
C           4.0630426     0.2233863     1.3724798
H           3.7233760     0.2409387     2.4015678
C           3.4304085    -0.6522539     0.4902742
C           3.8356432    -0.7005526    -0.8614457
O           3.1766164    -1.5838749    -1.6683411
C           3.4801735    -1.5881262    -3.0554643
H           2.8063710    -2.3203477    -3.5035732
H           4.5193216    -1.8897308    -3.2407264
H           3.3019525    -0.6041982    -3.5074051
C           4.8677634     0.1382542    -1.2941425
H           5.1895463     0.1146350    -2.3286725
C           1.1421329    -3.2107813     1.5581313
H           0.7047309    -4.1962191     1.6282181
C           2.1787093    -2.8161378     0.7413264
H           2.7686127    -3.3521877     0.0156506
N           2.3839684    -1.4837347     0.9722600
N           1.5400780    -1.0002676     1.9271434
C           0.7876067    -2.0409506     2.2687984
H           0.0105925    -1.9118159     3.0114348
23
447_C10H10N2O_4-6-19-17 (-120,) energy =    -571.7705602
C           5.5073870     0.9859307    -0.3958826
H           6.3165327     1.6214858    -0.7449815
C           5.1253046     1.0074327     0.9432810
H           5.6315259     1.6557139     1.6518628
C           4.0893373     0.1780036     1.3739745
H           3.7634142     0.1735089     2.4083871
C           3.4228490    -0.6490854     0.4724859
C           3.8138375    -0.6786683    -0.8827020
O           3.1285128    -1.5348572    -1.6929166
C           3.4292952    -1.5363038    -3.0805719
H           2.7409084    -2.2527944    -3.5317573
H           4.4624061    -1.8561657    -3.2696173
H           3.2689564    -0.5465367    -3.5266848
C           4.8608006     0.1468310    -1.3068916
H           5.1723688     0.1438454    -2.3448926
C           1.2130158    -3.2297233     1.6321839
H           0.8478498    -4.2336406     1.7939682
C           2.2989382    -2.8496458     0.8741650
H           3.0039844    -3.4172080     0.2862824
N           2.3700635    -1.4866299     0.9346442
N           1.3994196    -0.9623063     1.7337381
C           0.6958294    -2.0152677     2.1394653
H          -0.1630035    -1.8637355     2.7809130
23
447_C10H10N2O_4-6-19-17 (-105,) energy =    -571.7687015
C           5.5564822     0.9466873    -0.4425712
H           6.3639048     1.5797102    -0.8005774
C           5.2211242     0.9380649     0.9096263
H           5.7614520     1.5592317     1.6171918
C           4.1839395     0.1145093     1.3497233
H           3.8927977     0.0865262     2.3948460
C           3.4778766    -0.6769316     0.4480107
C           3.8215678    -0.6766377    -0.9194840
O           3.0962953    -1.4999687    -1.7238038
C           3.3665360    -1.4912613    -3.1176389
H           2.6592539    -2.1945245    -3.5601322
H           4.3911046    -1.8222698    -3.3324579
H           3.2089304    -0.4952936    -3.5509750
C           4.8674576     0.1454408    -1.3562557
H           5.1459224     0.1682313    -2.4033717
C           1.2845188    -3.2314583     1.7010828
H           0.9647076    -4.2275089     1.9713727
C           2.4564582    -2.8721833     1.0697579
H           3.2913356    -3.4544957     0.7083433
N           2.4255328    -1.5171565     0.9153431
N           1.3004518    -0.9668197     1.4478453
C           0.6100655    -2.0067057     1.9096357
H          -0.3520320    -1.8384697     2.3767191
23
447_C10H10N2O_4-6-19-17 (-90,) energy =    -571.7677554
C           5.5852558     0.9261286    -0.4589231
H           6.3814610     1.5604678    -0.8392553
C           5.3201630     0.8827436     0.9078870
H           5.9014440     1.4800582     1.6033399
C           4.2905152     0.0634279     1.3751553
H           4.0492802     0.0139027     2.4325922
C           3.5394899    -0.7033567     0.4899360
C           3.8082764    -0.6623572    -0.8941023
O           3.0330454    -1.4522782    -1.6796894
C           3.2346797    -1.4137140    -3.0844804
H           2.4981422    -2.0987499    -3.5071479
H           4.2435321    -1.7507331    -3.3569033
H           3.0675302    -0.4062127    -3.4863208
C           4.8395734     0.1622953    -1.3603519
H           5.0653839     0.2133933    -2.4191394
C           1.3161573    -3.2290726     1.7588188
H           1.0168440    -4.1973671     2.1333137
C           2.5817182    -2.8347561     1.3766965
H           3.5266231    -3.3581874     1.3508260
N           2.4876426    -1.5342072     0.9788565
N           1.2185853    -1.0562265     1.0776238
C           0.5156177    -2.0832306     1.5502232
H          -0.5455132    -1.9618227     1.7277142
23
447_C10H10N2O_4-6-19-17 (-75,) energy =    -571.7678720
C           5.6144288     0.8941353    -0.4670225
H           6.4141380     1.5239855    -0.8473776
C           5.3794537     0.8148436     0.9032823
H           5.9867723     1.3805639     1.6029174
C           4.3395984     0.0072652     1.3691057
H           4.1164083    -0.0605052     2.4296519
C           3.5555056    -0.7221724     0.4803751
C           3.7978244    -0.6496888    -0.9081896
O           3.0010613    -1.4114143    -1.6980676
C           3.1738954    -1.3379634    -3.1050082
H           2.4215169    -2.0043102    -3.5295798
H           4.1732673    -1.6776480    -3.4077451
H           3.0086684    -0.3186589    -3.4767369
C           4.8326337     0.1715800    -1.3722111
H           5.0380934     0.2462487    -2.4337085
C           1.3469201    -3.1947774     1.8685644
H           1.0625288    -4.1139383     2.3601217
C           2.6247002    -2.7529110     1.5959907
H           3.5967939    -3.1860253     1.7829381
N           2.5011312    -1.5453319     0.9726976
N           1.2017917    -1.1792251     0.8141906
C           0.5091997    -2.1760609     1.3597494
H          -0.5722331    -2.1254372     1.3715023
23
447_C10H10N2O_4-6-19-17 (-60,) energy =    -571.7680833
C           5.6208293     0.8670708    -0.4650713
H           6.4245246     1.4992241    -0.8328007
C           5.3982366     0.7431443     0.9036172
H           6.0188169     1.2765611     1.6168749
C           4.3499865    -0.0631275     1.3518392
H           4.1344325    -0.1575198     2.4119993
C           3.5445613    -0.7519215     0.4483523
C           3.7805774    -0.6420562    -0.9400636
O           2.9803044    -1.3768331    -1.7509868
C           3.1526681    -1.2650528    -3.1550342
H           2.3978028    -1.9170969    -3.5970521
H           4.1507950    -1.5992328    -3.4682148
H           2.9901660    -0.2354699    -3.4987484
C           4.8201841     0.1839999    -1.3842922
H           5.0182327     0.2882738    -2.4446468
C           1.3531738    -3.1394416     1.9963323
H           1.0747728    -3.9908052     2.6004367
C           2.6255067    -2.6666364     1.7543106
H           3.5989548    -3.0095008     2.0740272
N           2.4958195    -1.5832054     0.9328287
N           1.1966989    -1.3223393     0.6294345
C           0.5113765    -2.2645273     1.2713075
H          -0.5684243    -2.2794871     1.1941398
23
447_C10H10N2O_4-6-19-17 (-45,) energy =    -571.7678201
C           5.6229948     0.8506350    -0.4678748
H           6.4262618     1.4895804    -0.8243271
C           5.4154897     0.6801058     0.8976238
H           6.0477135     1.1833340     1.6225431
C           4.3659273    -0.1321238     1.3306711
H           4.1623834    -0.2526126     2.3904233
C           3.5379692    -0.7818924     0.4167279
C           3.7662129    -0.6329243    -0.9710746
O           2.9648777    -1.3433057    -1.8021893
C           3.1397212    -1.1972549    -3.2022859
H           2.3864891    -1.8396661    -3.6609290
H           4.1389258    -1.5219811    -3.5222172
H           2.9758864    -0.1600322    -3.5218704
C           4.8054287     0.2028567    -1.3974480
H           4.9928818     0.3379342    -2.4561877
C           1.3534191    -3.0667564     2.1139490
H           1.0694960    -3.8363196     2.8170797
C           2.6177225    -2.5691395     1.8855437
H           3.5791131    -2.8178134     2.3108381
N           2.5047069    -1.6331079     0.8947116
N           1.2171344    -1.4815437     0.4820085
C           0.5290150    -2.3525908     1.2130662
H          -0.5408650    -2.4354950     1.0696117
23
447_C10H10N2O_4-6-19-17 (-30,) energy =    -571.7665435
C           5.6172467     0.8394293    -0.4654570
H           6.4159602     1.4887188    -0.8130403
C           5.4295391     0.6208756     0.8954076
H           6.0735975     1.0956444     1.6290912
C           4.3851063    -0.2033204     1.3165980
H           4.2006771    -0.3489500     2.3762012
C           3.5310486    -0.8151807     0.3982123
C           3.7488363    -0.6267137    -0.9887736
O           2.9477203    -1.3141857    -1.8391005
C           3.1254353    -1.1364878    -3.2346787
H           2.3759813    -1.7722284    -3.7086238
H           4.1268192    -1.4493688    -3.5598000
H           2.9572660    -0.0934256    -3.5326955
C           4.7828902     0.2228141    -1.4005501
H           4.9550547     0.3895446    -2.4572675
C           1.3292978    -2.9943352     2.2031094
H           1.0238743    -3.6763857     2.9833399
C           2.5867608    -2.4750732     1.9947264
H           3.5209888    -2.6316296     2.5132451
N           2.5202789    -1.6967583     0.8689934
N           1.2556651    -1.6550403     0.3616563
C           0.5480669    -2.4479173     1.1573064
H          -0.5044494    -2.5990376     0.9535558
23
447_C10H10N2O_4-6-19-17 (-15,) energy =    -571.7639213
C           5.6207048     0.8422154    -0.4660740
H           6.4089506     1.5032259    -0.8151729
C           5.4675831     0.5788397     0.8904873
H           6.1303550     1.0279228     1.6236991
C           4.4363754    -0.2604823     1.3121405
H           4.2878831    -0.4285038     2.3731419
C           3.5458904    -0.8388968     0.4039703
C           3.7387503    -0.6141371    -0.9842078
O           2.9308189    -1.2781477    -1.8466126
C           3.1031578    -1.0741709    -3.2388668
H           2.3552117    -1.7057353    -3.7208191
H           4.1049507    -1.3755757    -3.5735401
H           2.9278645    -0.0271502    -3.5188815
C           4.7616016     0.2508385    -1.3935834
H           4.9057845     0.4474157    -2.4491829
C           1.3069107    -2.9132391     2.2853215
H           0.9653025    -3.5034650     3.1233109
C           2.5543227    -2.3630479     2.1097643
H           3.4425680    -2.4173830     2.7202502
N           2.5621891    -1.7510854     0.8804929
N           1.3371043    -1.8343171     0.2810005
C           0.5965517    -2.5491620     1.1165120
H          -0.4276693    -2.7790406     0.8512626
23
447_C10H10N2O_4-6-19-17 (0,) energy =    -571.7606540
C           5.6837186     0.7593630    -0.4947954
H           6.4851150     1.3973392    -0.8560480
C           5.5484244     0.4826477     0.8604649
H           6.2401976     0.8967196     1.5875007
C           4.5071016    -0.3356551     1.2912236
H           4.4105521    -0.5227956     2.3532122
C           3.5759237    -0.8909179     0.4040643
C           3.7308339    -0.6236747    -0.9849928
O           2.8619532    -1.1893426    -1.8583707
C           3.0153322    -0.9350523    -3.2442027
H           2.2159171    -1.4960464    -3.7310448
H           3.9860805    -1.2867088    -3.6186457
H           2.9029668     0.1322337    -3.4773047
C           4.7803386     0.2086976    -1.4010431
H           4.8969787     0.4229867    -2.4562154
C           1.2275379    -2.8286961     2.3283290
H           0.8006490    -3.2744745     3.2151373
C           2.3842038    -2.0916325     2.2474017
H           3.0892885    -1.8276373     3.0178163
N           2.5587332    -1.7431312     0.9280630
N           1.5329108    -2.2128317     0.1613563
C           0.7442055    -2.8690553     1.0007962
H          -0.1472583    -3.3503549     0.6193962
23
447_C10H10N2O_4-6-19-17 (15,) energy =    -571.7639203
C           5.1316792     1.2781927    -0.6582926
H           5.8676485     1.9880776    -1.0251034
C           4.3744944     1.5651412     0.4719370
H           4.5049122     2.5004888     1.0073261
C           3.4483431     0.6284558     0.9309844
H           2.8910028     0.8306794     1.8390556
C           3.2676788    -0.5975987     0.2859149
C           4.0002466    -0.8644652    -0.9000964
O           3.7202312    -2.0109287    -1.5668764
C           4.4457781    -2.3092052    -2.7476832
H           4.0569597    -3.2678534    -3.0946482
H           5.5210494    -2.4051419    -2.5479535
H           4.2883298    -1.5493872    -3.5251150
C           4.9455511     0.0724356    -1.3363340
H           5.5261109    -0.1284778    -2.2287136
C           0.6609537    -2.3380700     2.0254205
H          -0.1995206    -2.4543247     2.6683070
C           1.2206273    -1.1595888     1.5926899
H           0.9276448    -0.1343709     1.7595550
N           2.2535198    -1.4833597     0.7477866
N           2.4199418    -2.8377015     0.6702144
C           1.4507856    -3.3442554     1.4194309
H           1.3519639    -4.4193482     1.5011772
23
447_C10H10N2O_4-6-19-17 (30,) energy =    -571.7665435
C           5.1401283     1.2768875    -0.6459459
H           5.8660341     1.9929759    -1.0209246
C           4.4215374     1.5451888     0.5144908
H           4.5756919     2.4690852     1.0632726
C           3.5079366     0.6010544     0.9850927
H           2.9713806     0.7781910     1.9117612
C           3.2991106    -0.6023591     0.3102573
C           3.9995707    -0.8565565    -0.8944839
O           3.6944366    -1.9988193    -1.5575152
C           4.3887922    -2.2948830    -2.7579401
H           3.9878569    -3.2501783    -3.1001885
H           5.4681215    -2.3955509    -2.5847759
H           4.2148739    -1.5302699    -3.5270229
C           4.9331035     0.0851185    -1.3442403
H           5.4881414    -0.0992054    -2.2564073
C           0.6158455    -2.3400487     1.9331845
H          -0.3092817    -2.4537383     2.4794773
C           1.1644712    -1.1709205     1.4573460
H           0.8144281    -0.1498916     1.4909642
N           2.3133034    -1.5068213     0.7904377
N           2.5557593    -2.8469153     0.8519400
C           1.5258279    -3.3443679     1.5258772
H           1.4726594    -4.4117173     1.6993485
23
447_C10H10N2O_4-6-19-17 (45,) energy =    -571.7678201
C           5.1516222     1.2828945    -0.6458340
H           5.8713926     1.9984042    -1.0338083
C           4.4757135     1.5418390     0.5427872
H           4.6596514     2.4561024     1.0984339
C           3.5686229     0.5989684     1.0296240
H           3.0553775     0.7624416     1.9724274
C           3.3228139    -0.5845761     0.3355009
C           3.9871061    -0.8354136    -0.8876424
O           3.6534896    -1.9746469    -1.5421489
C           4.3202149    -2.2795960    -2.7565026
H           3.9072053    -3.2339593    -3.0866815
H           5.4023253    -2.3848052    -2.6055886
H           4.1334018    -1.5168309    -3.5242939
C           4.9135185     0.1038045    -1.3566021
H           5.4400035    -0.0719717    -2.2873173
C           0.5822371    -2.3596259     1.8227340
H          -0.3946812    -2.4937745     2.2641722
C           1.1186992    -1.1946325     1.3194910
H           0.7187430    -0.1950622     1.2307200
N           2.3624279    -1.5026192     0.8409940
N           2.6705393    -2.8141690     1.0308446
C           1.5925475    -3.3277413     1.6146712
H           1.5795069    -4.3796840     1.8702924
23
447_C10H10N2O_4-6-19-17 (60,) energy =    -571.7680833
C           5.1657685     1.2843716    -0.6368703
H           5.8835494     1.9953102    -1.0370272
C           4.5318621     1.5375717     0.5764993
H           4.7482501     2.4415893     1.1371403
C           3.6244898     0.6021198     1.0779075
H           3.1353207     0.7585933     2.0347474
C           3.3384239    -0.5628743     0.3705248
C           3.9667348    -0.8126934    -0.8697537
O           3.6028627    -1.9476076    -1.5158933
C           4.2394251    -2.2614497    -2.7446507
H           3.8111877    -3.2129831    -3.0633348
H           5.3236483    -2.3750190    -2.6175707
H           4.0413132    -1.4987638    -3.5095542
C           4.8909525     0.1191712    -1.3575439
H           5.3894835    -0.0520588    -2.3044309
C           0.5597995    -2.4119846     1.6967273
H          -0.4550889    -2.5880983     2.0226978
C           1.0784612    -1.2480939     1.1701393
H           0.6314998    -0.2885766     0.9535128
N           2.3941323    -1.4899315     0.8944380
N           2.7617886    -2.7573574     1.2204239
C           1.6519529    -3.3102751     1.7020149
H           1.6765848    -4.3379009     2.0419035
23
447_C10H10N2O_4-6-19-17 (75,) energy =    -571.7678720
C           5.1915889     1.2818937    -0.6266822
H           5.9120752     1.9843765    -1.0369674
C           4.5984484     1.5310300     0.6083691
H           4.8500051     2.4229615     1.1736501
C           3.6831065     0.6092908     1.1212233
H           3.2184761     0.7629298     2.0905938
C           3.3536661    -0.5370398     0.4042011
C           3.9473926    -0.7867904    -0.8516647
O           3.5505554    -1.9152181    -1.4905188
C           4.1527736    -2.2354790    -2.7353134
H           3.7046534    -3.1808055    -3.0449886
H           5.2381855    -2.3629037    -2.6347735
H           3.9455760    -1.4688428    -3.4936788
C           4.8747538     0.1329941    -1.3562720
H           5.3462745    -0.0363088    -2.3172981
C           0.5573715    -2.4707876     1.5703970
H          -0.4773025    -2.7019795     1.7786345
C           1.0589952    -1.3172145     1.0047926
H           0.5791929    -0.4190054     0.6435249
N           2.4139325    -1.4653089     0.9398300
N           2.8236933    -2.6663795     1.4266270
C           1.7000686    -3.2680294     1.8093613
H           1.7514713    -4.2561723     2.2488277
23
447_C10H10N2O_4-6-19-17 (90,) energy =    -571.7677554
C           5.2183322     1.2626143    -0.5974402
H           5.9429962     1.9625562    -1.0047791
C           4.6599670     1.4881214     0.6586256
H           4.9425463     2.3593138     1.2412915
C           3.7331262     0.5745343     1.1647057
H           3.2866915     0.7131483     2.1446557
C           3.3675401    -0.5456570     0.4250244
C           3.9302286    -0.7741267    -0.8480318
O           3.5055130    -1.8854343    -1.5012678
C           4.0744126    -2.1836087    -2.7673744
H           3.6081495    -3.1164610    -3.0879908
H           5.1603925    -2.3251275    -2.6960071
H           3.8580603    -1.3972052    -3.5024529
C           4.8616024     0.1421529    -1.3520044
H           5.3101352    -0.0109559    -2.3266880
C           0.5677010    -2.5427748     1.4761809
H          -0.4676962    -2.8361416     1.5727088
C           1.0671745    -1.4460115     0.8047769
H           0.5851138    -0.6610248     0.2400575
N           2.4219752    -1.4739656     0.9540691
N           2.8369757    -2.5401364     1.6887674
C           1.7133270    -3.1814134     2.0024999
H           1.7669084    -4.0821122     2.6009250
23
447_C10H10N2O_4-6-19-17 (105,) energy =    -571.7687015
C           5.2313554     1.2448483    -0.5653034
H           5.9462059     1.9627567    -0.9582582
C           4.7112880     1.4055732     0.7171452
H           5.0116540     2.2467575     1.3341056
C           3.7909373     0.4748848     1.2013497
H           3.3695300     0.5663318     2.1972821
C           3.4084556    -0.6132434     0.4218157
C           3.9265769    -0.7728720    -0.8798116
O           3.4776833    -1.8496103    -1.5797781
C           4.0142326    -2.0850689    -2.8730516
H           3.5384231    -3.0005685    -3.2281472
H           5.1014617    -2.2305124    -2.8363091
H           3.7813705    -1.2631081    -3.5626966
C           4.8442224     0.1668019    -1.3649993
H           5.2616937     0.0621471    -2.3596242
C           0.5877452    -2.5925506     1.4379603
H          -0.4334628    -2.9454775     1.4433813
C           1.1505015    -1.6746947     0.5766027
H           0.7426967    -1.1175595    -0.2540741
N           2.4624475    -1.5509758     0.9292913
N           2.7779749    -2.3215715     2.0057953
C           1.6464251    -2.9569495     2.3009842
H           1.6321965    -3.6578412     3.1259994
23
447_C10H10N2O_4-6-19-17 (120,) energy =    -571.7705602
C           5.2502829     1.2217293    -0.4929783
H           5.9640674     1.9447266    -0.8780806
C           4.7634335     1.3392816     0.8066247
H           5.0887751     2.1534090     1.4469109
C           3.8412236     0.4055411     1.2802661
H           3.4459113     0.4646611     2.2884769
C           3.4253559    -0.6513395     0.4734060
C           3.9107603    -0.7674809    -0.8461300
O           3.4333874    -1.8143380    -1.5778285
C           3.9579291    -2.0209411    -2.8809903
H           3.4730357    -2.9240152    -3.2553418
H           5.0443133    -2.1743195    -2.8563195
H           3.7254848    -1.1803836    -3.5479242
C           4.8267675     0.1780990    -1.3197617
H           5.2166501     0.1033151    -2.3281905
C           0.6161999    -2.6824543     1.4067705
H          -0.3705837    -3.1163971     1.3338167
C           1.2471528    -1.8851981     0.4769532
H           0.9403094    -1.5249295    -0.4930348
N           2.4838014    -1.5908787     0.9775586
N           2.6724691    -2.1295618     2.2144259
C           1.5502897    -2.7987121     2.4620805
H           1.4533567    -3.3457892     3.3912317
23
447_C10H10N2O_4-6-19-17 (135,) energy =    -571.7720379
C           5.2820632     1.2038124    -0.4781436
H           6.0076423     1.9150301    -0.8628271
C           4.8224998     1.3045057     0.8323997
H           5.1818383     2.0943344     1.4849163
C           3.8839766     0.3876150     1.3048433
H           3.5111954     0.4355242     2.3214272
C           3.4155855    -0.6386173     0.4846514
C           3.8822444    -0.7432259    -0.8438746
O           3.3782954    -1.7687357    -1.5922193
C           3.9000252    -1.9730212    -2.8969574
H           3.3992947    -2.8639322    -3.2797191
H           4.9833798    -2.1458571    -2.8724990
H           3.6829743    -1.1227855    -3.5565820
C           4.8139222     0.1876833    -1.3144923
H           5.1833173     0.1204151    -2.3310436
C           0.6625056    -2.7709639     1.3769728
H          -0.2716674    -3.3009011     1.2594665
C           1.3297246    -2.0376413     0.4206981
H           1.1054531    -1.8271492    -0.6124217
N           2.4720355    -1.5644455     1.0054813
N           2.5625428    -1.9377587     2.3132043
C           1.4765237    -2.6726052     2.5289021
H           1.3196650    -3.1121123     3.5057156
23
447_C10H10N2O_4-6-19-17 (150,) energy =    -571.7725108
C           5.3132809     1.1851792    -0.4695235
H           6.0557081     1.8809347    -0.8500450
C           4.8683496     1.2740264     0.8466017
H           5.2574109     2.0391420     1.5114805
C           3.9081872     0.3777624     1.3123019
H           3.5480099     0.4198332     2.3329463
C           3.3907432    -0.6173805     0.4800368
C           3.8521878    -0.7157171    -0.8523314
O           3.3296029    -1.7194398    -1.6202306
C           3.8518030    -1.9171139    -2.9258669
H           3.3346771    -2.7928914    -3.3217140
H           4.9312722    -2.1119850    -2.8998662
H           3.6537043    -1.0545406    -3.5751037
C           4.8069575     0.1960003    -1.3144548
H           5.1655655     0.1322765    -2.3349597
C           0.7146658    -2.8640827     1.3584498
H          -0.1533750    -3.4919758     1.2188374
C           1.4075486    -2.1766145     0.3866946
H           1.2649029    -2.0982973    -0.6773914
N           2.4337469    -1.5220903     1.0140263
N           2.4290511    -1.7534120     2.3582233
C           1.3960598    -2.5631726     2.5596197
H           1.1818306    -2.9082771     3.5630912
23
447_C10H10N2O_4-6-19-17 (165,) energy =    -571.7721002
C           5.3536364     1.1482861    -0.4567788
H           6.1099692     1.8299238    -0.8352363
C           4.9191438     1.2296985     0.8629710
H           5.3305905     1.9754168     1.5364326
C           3.9435281     0.3500059     1.3252497
H           3.5924611     0.3910411     2.3483149
C           3.3884460    -0.6228153     0.4875053
C           3.8413913    -0.7131415    -0.8499068
O           3.2986263    -1.6916298    -1.6384068
C           3.7955826    -1.8586982    -2.9580199
H           3.2534453    -2.7105581    -3.3723234
H           4.8707726    -2.0772571    -2.9565217
H           3.6050980    -0.9722047    -3.5762849
C           4.8157748     0.1811473    -1.3060651
H           5.1638309     0.1204052    -2.3302093
C           0.7853778    -2.9551645     1.3960756
H          -0.0067457    -3.6773531     1.2612497
C           1.5228392    -2.3404370     0.4089892
H           1.4871972    -2.4168230    -0.6626612
N           2.4111505    -1.5021709     1.0326072
N           2.2762796    -1.5581434     2.3900328
C           1.2998905    -2.4307848     2.6026794
H           1.0034246    -2.6553259     3.6193737
23
447_C10H10N2O_4-6-19-17 (180,) energy =    -571.7717023
C           5.3848098     1.1083038    -0.4506019
H           6.1466813     1.7845102    -0.8275888
C           4.9556414     1.1834198     0.8710292
H           5.3757816     1.9202161     1.5489741
C           3.9776863     0.3064877     1.3323375
H           3.6293141     0.3474028     2.3558711
C           3.4093411    -0.6585741     0.4928143
C           3.8478392    -0.7326917    -0.8511625
O           3.2801287    -1.6830994    -1.6573277
C           3.7053708    -1.7777749    -3.0087120
H           3.1243438    -2.5921865    -3.4451033
H           4.7741012    -2.0164522    -3.0782622
H           3.5023301    -0.8510656    -3.5600627
C           4.8311872     0.1540029    -1.3034069
H           5.1692996     0.1008376    -2.3311624
C           0.8629817    -3.0473988     1.4334282
H           0.1584229    -3.8592025     1.3248533
C           1.6963745    -2.5389587     0.4627019
H           1.8393839    -2.8088742    -0.5670856
N           2.4138634    -1.5198931     1.0380774
N           2.0693942    -1.3553544     2.3493100
C           1.1401861    -2.2724999     2.5810642
H           0.7019278    -2.3432544     3.5684441
