22
440_C10H9FN2_4-6-18-19 (-165,) energy =    -595.7917819
C           5.9516505     1.1093582    -0.3655284
H           6.7532451     1.8416193    -0.3653040
C           6.1750757    -0.1957105     0.0672606
H           7.1590270    -0.5039341     0.4076493
C           5.1377499    -1.1259513     0.0565185
H           5.3527361    -2.1444515     0.3450192
C           3.8490888    -0.7956251    -0.3935051
C           3.6424361     0.5401029    -0.7978917
F           2.4376415     0.9875115    -1.1786628
C           4.6787355     1.4674605    -0.8013936
H           4.4489028     2.4745463    -1.1339539
C           1.3537135    -3.3075385     0.2647646
H           0.8908695    -4.1580840     0.7452496
C           2.6244555    -2.8314572     0.5088912
C           3.5946879    -3.3480717     1.5270227
H           3.0654492    -4.0448519     2.1830318
H           4.0095067    -2.5494770     2.1513658
H           4.4345835    -3.8966001     1.0823823
N           2.7896927    -1.7407287    -0.3367377
N           1.6520671    -1.4939007    -1.0578287
C           0.8052499    -2.4465339    -0.7088888
H          -0.1754513    -2.4774734    -1.1662412
22
440_C10H9FN2_4-6-18-19 (-150,) energy =    -595.7957377
C           5.9697049     1.0792103    -0.3534061
H           6.7750422     1.8075321    -0.3506351
C           6.2258914    -0.2639665    -0.0813807
H           7.2361203    -0.5998361     0.1319614
C           5.1851429    -1.1911819    -0.0988792
H           5.4007992    -2.2399641     0.0638606
C           3.8688062    -0.8047508    -0.3865256
C           3.6298461     0.5605735    -0.6249166
F           2.3863778     1.0169922    -0.8307499
C           4.6656093     1.4873490    -0.6287372
H           4.4198634     2.5252874    -0.8283243
C           1.3661085    -3.3054061     0.2370470
H           0.8805082    -4.1346949     0.7320113
C           2.6064903    -2.7851425     0.5443206
C           3.5393912    -3.1883343     1.6442975
H           2.9835604    -3.7748173     2.3813022
H           3.9712083    -2.3219926     2.1564012
H           4.3703781    -3.8121831     1.2916070
N           2.8102097    -1.7473200    -0.3494397
N           1.7345518    -1.5672746    -1.1743579
C           0.8800274    -2.5173846    -0.8292346
H          -0.0614984    -2.6009600    -1.3569217
22
440_C10H9FN2_4-6-18-19 (-135,) energy =    -595.7980240
C           5.9742965     1.0436463    -0.3855894
H           6.7829840     1.7683272    -0.3968898
C           6.2471785    -0.3173421    -0.2457753
H           7.2713662    -0.6653370    -0.1523713
C           5.2024871    -1.2411139    -0.2457696
H           5.4125936    -2.3029558    -0.1772890
C           3.8730419    -0.8231261    -0.3722622
C           3.6204158     0.5518424    -0.4895311
F           2.3586259     0.9991800    -0.5607972
C           4.6549408     1.4790001    -0.5110950
H           4.4048468     2.5302962    -0.6092618
C           1.3758850    -3.3371124     0.1990139
H           0.8770417    -4.1588538     0.6933592
C           2.5739230    -2.7613779     0.5731905
C           3.4621219    -3.0707496     1.7381913
H           2.8965901    -3.6397349     2.4814226
H           3.8357585    -2.1603833     2.2190450
H           4.3338645    -3.6748054     1.4572111
N           2.8070556    -1.7570989    -0.3431129
N           1.8052673    -1.6539378    -1.2658002
C           0.9529253    -2.6153994    -0.9394776
H           0.0590690    -2.7559517    -1.5338235
22
440_C10H9FN2_4-6-18-19 (-120,) energy =    -595.7986805
C           5.9968494     1.0311281    -0.4066435
H           6.8104778     1.7502792    -0.4257526
C           6.2677468    -0.3382748    -0.4209897
H           7.2930380    -0.6934565    -0.4575582
C           5.2169609    -1.2554523    -0.4089806
H           5.4118951    -2.3223446    -0.4525422
C           3.8904688    -0.8169508    -0.3632628
C           3.6414121     0.5605056    -0.3412947
F           2.3766257     1.0015051    -0.2749325
C           4.6779568     1.4852973    -0.3699984
H           4.4353203     2.5427088    -0.3534749
C           1.3747750    -3.3193052     0.1694198
H           0.8553146    -4.1261467     0.6670037
C           2.5335571    -2.7005582     0.5975288
C           3.3630515    -2.9258806     1.8229131
H           2.8178504    -3.5696259     2.5184401
H           3.5899720    -1.9853990     2.3377659
H           4.3196140    -3.4140352     1.5998178
N           2.8105703    -1.7378710    -0.3449165
N           1.8853292    -1.7042482    -1.3479846
C           1.0251580    -2.6643913    -1.0328674
H           0.1795540    -2.8529674    -1.6820769
22
440_C10H9FN2_4-6-18-19 (-105,) energy =    -595.7984938
C           5.9175655     1.1270230    -0.4781827
H           6.6591719     1.8727245    -0.7496353
C           4.5562720     1.4123337    -0.6042589
H           4.2322324     2.3821028    -0.9691997
C           3.6091428     0.4531610    -0.2451341
H           2.5462423     0.6636927    -0.3139995
C           4.0130511    -0.7980183     0.2268595
C           5.3807756    -1.0633700     0.3429000
F           5.7784276    -2.2663176     0.7849053
C           6.3368691    -0.1153251    -0.0008538
H           7.3873662    -0.3643421     0.1070141
C           1.5484395    -3.3764203     0.6202371
H           0.8309768    -4.1277526     0.3216499
C           2.3004703    -2.5768214    -0.2195544
C           2.3717982    -2.5106353    -1.7126286
H           1.7339871    -3.2857533    -2.1454996
H           3.3934402    -2.6707549    -2.0776475
H           2.0355627    -1.5422441    -2.1023260
N           3.0636037    -1.7871837     0.6045359
N           2.8469806    -2.0414832     1.9275586
C           1.9286265    -3.0009905     1.9281190
H           1.5700143    -3.3907853     2.8723896
22
440_C10H9FN2_4-6-18-19 (-90,) energy =    -595.7987558
C           5.9177019     1.1325236    -0.5069508
H           6.6739926     1.8586671    -0.7906794
C           4.5765002     1.5135405    -0.4239977
H           4.2838065     2.5358931    -0.6425227
C           3.6094448     0.5770906    -0.0579509
H           2.5626483     0.8528912     0.0232989
C           3.9752997    -0.7386598     0.2334450
C           5.3214915    -1.0997893     0.1345749
F           5.6740638    -2.3730793     0.3818366
C           6.2982924    -0.1810523    -0.2289879
H           7.3319403    -0.5051996    -0.2895803
C           1.6027935    -3.4005038     0.6178181
H           0.9625811    -4.2187263     0.3193854
C           2.3842216    -2.6211251    -0.2139577
C           2.6103751    -2.6696652    -1.6915999
H           1.9590278    -3.4237802    -2.1410333
H           3.6477735    -2.9341759    -1.9316717
H           2.3979956    -1.7074315    -2.1723020
N           3.0022980    -1.7090588     0.6039486
N           2.6824710    -1.8781795     1.9203232
C           1.8291854    -2.8962476     1.9180013
H           1.4034850    -3.2328306     2.8549140
22
440_C10H9FN2_4-6-18-19 (-75,) energy =    -595.8002807
C           5.8875858     1.1454052    -0.4119718
H           6.6515644     1.8657906    -0.6894951
C           4.5780941     1.5676196    -0.1704504
H           4.3171700     2.6176063    -0.2604614
C           3.6002165     0.6373464     0.1799355
H           2.5772781     0.9424752     0.3754395
C           3.9247672    -0.7153530     0.3109338
C           5.2391318    -1.1151958     0.0572506
F           5.5551750    -2.4220408     0.1475200
C           6.2240544    -0.2043234    -0.3031285
H           7.2314581    -0.5627150    -0.4871701
C           1.5631313    -3.3877146     0.6956854
H           0.9642781    -4.2416502     0.4118369
C           2.4097072    -2.6668725    -0.1246242
C           2.7638458    -2.8366316    -1.5676475
H           2.1486125    -3.6250376    -2.0090996
H           3.8159608    -3.1191661    -1.6904085
H           2.5982348    -1.9164471    -2.1405663
N           2.9323628    -1.6706344     0.6621585
N           2.4890774    -1.7324669     1.9531306
C           1.6542384    -2.7652989     1.9606792
H           1.1459818    -3.0289596     2.8796258
22
440_C10H9FN2_4-6-18-19 (-60,) energy =    -595.8017085
C           5.8622954     1.1651889    -0.4160717
H           6.6168896     1.8980098    -0.6863276
C           4.5831642     1.5786290    -0.0353720
H           4.3361623     2.6354685    -0.0072801
C           3.6160998     0.6334333     0.3014491
H           2.6176764     0.9309841     0.6039364
C           3.9189916    -0.7315911     0.2764567
C           5.2087497    -1.1207149    -0.0945047
F           5.5238225    -2.4328117    -0.1119711
C           6.1795482    -0.1927068    -0.4494118
H           7.1658385    -0.5464831    -0.7309579
C           1.5023553    -3.3548205     0.6769281
H           0.8941178    -4.2063445     0.4061161
C           2.4229837    -2.7131615    -0.1296992
C           2.8248145    -2.9685505    -1.5476027
H           2.1639186    -3.7204581    -1.9867053
H           3.8540734    -3.3357575    -1.6176422
H           2.7550353    -2.0598674    -2.1576456
N           2.9345932    -1.6901591     0.6318075
N           2.3920995    -1.6453938     1.8851911
C           1.5279488    -2.6533791     1.9024923
H           0.9522888    -2.8422075     2.7997992
22
440_C10H9FN2_4-6-18-19 (-45,) energy =    -595.8021267
C           5.8556419     1.2239530    -0.3897640
H           6.5917646     1.9777916    -0.6526983
C           4.6082023     1.6001390     0.1145341
H           4.3675469     2.6502016     0.2497665
C           3.6632983     0.6300348     0.4402876
H           2.6916599     0.8993147     0.8388660
C           3.9513236    -0.7294116     0.2709964
C           5.2192287    -1.0825137    -0.2006025
F           5.5479422    -2.3878736    -0.3101877
C           6.1647049    -0.1264604    -0.5491249
H           7.1310593    -0.4566942    -0.9157079
C           1.5096983    -3.3301961     0.6783266
H           0.9016942    -4.1849721     0.4173921
C           2.4974615    -2.7591504    -0.1013079
C           2.9516633    -3.1069561    -1.4836509
H           2.1999598    -3.7388669    -1.9642429
H           3.9032356    -3.6470842    -1.4820130
H           3.0843512    -2.2109727    -2.1011282
N           2.9916316    -1.7067576     0.6368172
N           2.3486697    -1.5631899     1.8348533
C           1.4649649    -2.5528737     1.8558338
H           0.8241137    -2.6727179     2.7201882
22
440_C10H9FN2_4-6-18-19 (-30,) energy =    -595.8009355
C           5.8167123     1.2286991    -0.4307888
H           6.5478962     1.9886417    -0.6895972
C           4.6230573     1.5796526     0.2040697
H           4.4197161     2.6172937     0.4508738
C           3.6836909     0.6032211     0.5246632
H           2.7567358     0.8555183     1.0253442
C           3.9108646    -0.7423014     0.2040679
C           5.1417287    -1.0750856    -0.3727177
F           5.4553735    -2.3729011    -0.5823776
C           6.0786790    -0.1097204    -0.7183431
H           7.0090623    -0.4296246    -1.1759655
C           1.4153324    -3.2904549     0.6315562
H           0.7910017    -4.1360781     0.3794498
C           2.4607707    -2.7944673    -0.1224258
C           2.9296317    -3.2306634    -1.4750442
H           2.1393591    -3.8176915    -1.9510403
H           3.8317949    -3.8467335    -1.4273113
H           3.1507436    -2.3752049    -2.1229485
N           2.9667040    -1.7270756     0.5947943
N           2.2482595    -1.4920650     1.7361599
C           1.3336524    -2.4505621     1.7624835
H           0.6436310    -2.5023134     2.5952031
22
440_C10H9FN2_4-6-18-19 (-15,) energy =    -595.7975818
C           5.8095935     1.2642542    -0.4258773
H           6.5358781     2.0319834    -0.6750631
C           4.6724121     1.5730106     0.3230059
H           4.5078750     2.5867253     0.6756762
C           3.7406230     0.5861858     0.6307751
H           2.8605566     0.8122343     1.2187122
C           3.8978462    -0.7308477     0.1686683
C           5.0937520    -1.0292942    -0.4980099
F           5.4001543    -2.3093959    -0.8087522
C           6.0215722    -0.0508354    -0.8321621
H           6.9141828    -0.3515801    -1.3709211
C           1.3860100    -3.2699920     0.6088695
H           0.7688681    -4.1246220     0.3697695
C           2.4797725    -2.8320445    -0.1096786
C           2.9772870    -3.3743917    -1.4138294
H           2.1909364    -3.9993746    -1.8462263
H           3.8766794    -3.9854320    -1.3037710
H           3.2059210    -2.5784599    -2.1299414
N           2.9677040    -1.7286092     0.5766739
N           2.1641657    -1.4120890     1.6424786
C           1.2412508    -2.3583900     1.6748949
H           0.4979729    -2.3477286     2.4621408
22
440_C10H9FN2_4-6-18-19 (0,) energy =    -595.7931066
C           5.8942674     1.3385531    -0.3115805
H           6.6565702     2.0945335    -0.4728754
C           4.8764459     1.5276306     0.6237824
H           4.8316659     2.4402412     1.2106448
C           3.9055766     0.5527772     0.8204040
H           3.1182841     0.7009104     1.5452742
C           3.8993925    -0.6541424     0.0916540
C           4.9422828    -0.8150494    -0.8310882
F           5.0602875    -1.9372450    -1.5781430
C           5.9179207     0.1542528    -1.0381210
H           6.6851970    -0.0560185    -1.7761113
C           1.3606261    -3.2162879     0.5614237
H           0.8128923    -4.1374353     0.4212475
C           2.4958065    -2.8444000    -0.1308655
C           3.1355639    -3.6768726    -1.2015687
H           2.5297200    -4.5799093    -1.3162642
H           4.1540572    -3.9816407    -0.9499345
H           3.1720823    -3.1685007    -2.1678657
N           2.8576165    -1.5984927     0.3734314
N           1.9740704    -1.1939639     1.3453467
C           1.0874785    -2.1642771     1.4546725
H           0.2822115    -2.0697825     2.1721946
22
440_C10H9FN2_4-6-18-19 (15,) energy =    -595.7975816
C           5.8714570     1.1710713    -0.1625042
H           6.7043080     1.8597895    -0.2673874
C           5.0144429     1.2496788     0.9368772
H           5.1656643     2.0115219     1.6956938
C           3.9544711     0.3578304     1.0705912
H           3.2781583     0.4153930     1.9135440
C           3.7405626    -0.6623925     0.1292098
C           4.5583488    -0.6556822    -1.0087478
F           4.2956172    -1.4871992    -2.0425637
C           5.6338257     0.2130073    -1.1449331
H           6.2391342     0.1447468    -2.0429435
C           1.2521368    -3.2269022     0.5555423
H           0.8051447    -4.2101339     0.5120456
C           2.4319617    -2.8436716    -0.0490358
C           3.3871620    -3.7208388    -0.7977648
H           3.1464936    -4.7625672    -0.5679508
H           4.4264569    -3.5430443    -0.5032452
H           3.3252868    -3.5875148    -1.8807579
N           2.5962181    -1.4996976     0.2566739
N           1.6106283    -1.0594552     1.1031371
C           0.7927862    -2.0881571     1.2488539
H          -0.0974444    -1.9765020     1.8549425
22
440_C10H9FN2_4-6-18-19 (30,) energy =    -595.8009353
C           5.8584699     1.1404949    -0.2050339
H           6.6967124     1.8208099    -0.3218616
C           5.0956946     1.1484944     0.9649334
H           5.3310551     1.8421962     1.7663995
C           4.0282077     0.2670223     1.1142842
H           3.4201192     0.2658341     2.0108612
C           3.7099877    -0.6512661     0.1042773
C           4.4488077    -0.5941361    -1.0830271
F           4.0968816    -1.3729782    -2.1299686
C           5.5298326     0.2640197    -1.2378284
H           6.0723257     0.2514450    -2.1774523
C           1.2356437    -3.2218168     0.5214168
H           0.8013184    -4.2112316     0.4918145
C           2.4523545    -2.8474961    -0.0139717
C           3.4866954    -3.7021979    -0.6767610
H           3.3010373    -4.7480383    -0.4169965
H           4.4985134    -3.4465769    -0.3432188
H           3.4688721    -3.6120941    -1.7664622
N           2.5805973    -1.4975037     0.2527873
N           1.5272230    -1.0195042     0.9849686
C           0.7133141    -2.0562182     1.1210931
H          -0.2229828    -1.9290144     1.6496500
22
440_C10H9FN2_4-6-18-19 (45,) energy =    -595.8021269
C           5.8538775     1.1173181    -0.2167791
H           6.6964614     1.7895851    -0.3486634
C           5.1824222     1.0575139     1.0069389
H           5.4973466     1.6861412     1.8342777
C           4.1090928     0.1857754     1.1746697
H           3.5700842     0.1276344     2.1135763
C           3.6881426    -0.6358077     0.1222779
C           4.3523002    -0.5317805    -1.1035657
F           3.9249783    -1.2635978    -2.1551837
C           5.4371101     0.3175340    -1.2803666
H           5.9192644     0.3539419    -2.2516930
C           1.2145835    -3.2116102     0.4958726
H           0.7863203    -4.2035091     0.4621980
C           2.4704774    -2.8459353     0.0500858
C           3.5654601    -3.6838345    -0.5304255
H           3.3677811    -4.7377067    -0.3168579
H           4.5399088    -3.4286621    -0.0979693
H           3.6470448    -3.5632203    -1.6148742
N           2.5742874    -1.4952239     0.2976323
N           1.4577811    -0.9893617     0.9033025
C           0.6395175    -2.0287429     1.0085113
H          -0.3387383    -1.8902727     1.4512440
22
440_C10H9FN2_4-6-18-19 (60,) energy =    -595.8017085
C           5.8381477     1.1345054    -0.2570724
H           6.6819517     1.8018071    -0.4059717
C           5.2733674     0.9851950     1.0121043
H           5.6750741     1.5361677     1.8569492
C           4.1966768     0.1204713     1.1994117
H           3.7390962    -0.0090594     2.1744575
C           3.6633240    -0.5920110     0.1207674
C           4.2359988    -0.4164162    -1.1416782
F           3.7262050    -1.0853750    -2.1970562
C           5.3201331     0.4284512    -1.3427834
H           5.7289341     0.5290817    -2.3427724
C           1.1974128    -3.1825195     0.4207504
H           0.7800808    -4.1784525     0.3726147
C           2.4837823    -2.8139158     0.0753101
C           3.6333486    -3.6309183    -0.4228369
H           3.3780963    -4.6926526    -0.3725198
H           4.5347176    -3.4712232     0.1811282
H           3.8835453    -3.3885623    -1.4609708
N           2.5594401    -1.4627966     0.3137902
N           1.3874674    -0.9466465     0.7907910
C           0.5715413    -1.9923701     0.8527204
H          -0.4424989    -1.8531745     1.2056797
22
440_C10H9FN2_4-6-18-19 (75,) energy =    -595.8002818
C           5.8384224     1.0629445    -0.2929249
H           6.6866510     1.7180755    -0.4688119
C           5.3763891     0.8460833     1.0072877
H           5.8632010     1.3302525     1.8482750
C           4.2905824    -0.0006867     1.2280169
H           3.9124055    -0.1820491     2.2289204
C           3.6468896    -0.6204780     0.1540633
C           4.1315847    -0.3945718    -1.1367500
F           3.5387616    -1.0147039    -2.1758070
C           5.2182269     0.4371619    -1.3750241
H           5.5560442     0.5841809    -2.3955460
C           1.1862966    -3.2155069     0.4273711
H           0.7806083    -4.2166254     0.3881289
C           2.4958775    -2.8488024     0.1829899
C           3.6900360    -3.6594427    -0.2088931
H           3.4370233    -4.7227356    -0.1921093
H           4.5338297    -3.5006893     0.4731529
H           4.0293530    -3.4077151    -1.2205275
N           2.5433033    -1.4898733     0.3709968
N           1.3255910    -0.9600382     0.6932273
C           0.5148931    -2.0110866     0.7351894
H          -0.5285575    -1.8658825     0.9851097
22
440_C10H9FN2_4-6-18-19 (90,) energy =    -595.7987559
C           5.9200401     1.0023684    -0.3245966
H           6.7719801     1.6546577    -0.4933564
C           5.5531312     0.6512043     0.9765330
H           6.1170234     1.0279308     1.8243109
C           4.4572834    -0.1858833     1.1875754
H           4.1472467    -0.4637532     2.1901309
C           3.7195972    -0.6696638     0.1051149
C           4.1107346    -0.3132784    -1.1881038
F           3.4241123    -0.8034665    -2.2345190
C           5.1995002     0.5187856    -1.4175604
H           5.4648356     0.7720356    -2.4386549
C           1.2629685    -3.2656925     0.4022673
H           0.8715237    -4.2730854     0.4211937
C           2.5861233    -2.8993769     0.2441385
C           3.8204884    -3.7164167     0.0303866
H           3.5762073    -4.7799029     0.0956130
H           4.5926202    -3.4988411     0.7777541
H           4.2595142    -3.5315212    -0.9579757
N           2.6015728    -1.5284598     0.3005794
N           1.3559921    -0.9923312     0.4580925
C           0.5548811    -2.0496493     0.5280962
H          -0.5082834    -1.9003716     0.6684861
22
440_C10H9FN2_4-6-18-19 (105,) energy =    -595.7984939
C           5.9627378     0.9734800    -0.3269281
H           6.8132205     1.6345277    -0.4662223
C           5.6864996     0.4421052     0.9346664
H           6.3168289     0.6901261     1.7830908
C           4.5872675    -0.3990136     1.1085273
H           4.3417773    -0.8033500     2.0858042
C           3.7676243    -0.7253344     0.0254107
C           4.0637848    -0.1842244    -1.2292660
F           3.2891906    -0.5004623    -2.2783548
C           5.1488846     0.6632352    -1.4171678
H           5.3401905     1.0612179    -2.4082354
C           1.2994277    -3.2970013     0.4385355
H           0.9090449    -4.2969282     0.5656021
C           2.6306015    -2.9410602     0.3318269
C           3.8746193    -3.7724441     0.3333317
H           3.6100691    -4.8288491     0.4283308
H           4.5444547    -3.5170777     1.1629723
H           4.4458278    -3.6496550    -0.5949469
N           2.6391077    -1.5761516     0.1828936
N           1.3850115    -1.0381342     0.1802639
C           0.5819193    -2.0840874     0.3380189
H          -0.4889911    -1.9292928     0.3755216
22
440_C10H9FN2_4-6-18-19 (120,) energy =    -595.7986804
C           5.9508680     1.0351226    -0.3793159
H           6.8026152     1.6969102    -0.5062346
C           5.7624844     0.3531362     0.8241157
H           6.4627624     0.4844744     1.6433027
C           4.6591408    -0.4851976     0.9834650
H           4.4825821    -0.9963168     1.9246035
C           3.7463078    -0.6656395    -0.0596623
C           3.9584948     0.0214726    -1.2608071
F           3.1066144    -0.1552199    -2.2814143
C           5.0439278     0.8727196    -1.4272458
H           5.1653145     1.3851782    -2.3758813
C           1.2785297    -3.2340520     0.3735867
H           0.8867086    -4.2267996     0.5449124
C           2.6112475    -2.8712809     0.3392502
C           3.8501870    -3.6968682     0.4936160
H           3.5883344    -4.7576217     0.4530703
H           4.3594090    -3.5173808     1.4483700
H           4.5740451    -3.4952560    -0.3041656
N           2.6218602    -1.5196247     0.0850586
N           1.3663167    -1.0019206    -0.0525323
C           0.5615052    -2.0416065     0.1274861
H          -0.5102187    -1.8983948     0.0729351
22
440_C10H9FN2_4-6-18-19 (135,) energy =    -595.7980240
C           5.9714642     1.0157291    -0.4162580
H           6.8265306     1.6715289    -0.5506213
C           5.8621623     0.2223971     0.7260961
H           6.6285865     0.2572863     1.4943155
C           4.7535833    -0.6065394     0.8953806
H           4.6448998    -1.1949862     1.7999580
C           3.7460787    -0.6667545    -0.0738702
C           3.8874634     0.1230517    -1.2246660
F           2.9715852     0.0567486    -2.2014263
C           4.9776581     0.9675176    -1.3940162
H           5.0357432     1.5611179    -2.3004778
C           1.3039977    -3.2610615     0.3598139
H           0.9203731    -4.2526215     0.5550591
C           2.6280937    -2.8715836     0.4028921
C           3.8558438    -3.6822479     0.6809337
H           3.6234861    -4.7433339     0.5541401
H           4.2285290    -3.5486229     1.7041819
H           4.6744496    -3.4294797    -0.0013855
N           2.6326351    -1.5302043     0.0816285
N           1.3795616    -1.0561976    -0.1842567
C           0.5840562    -2.1012218    -0.0040155
H          -0.4831164    -1.9859040    -0.1448197
22
440_C10H9FN2_4-6-18-19 (150,) energy =    -595.7957376
C           5.9709884     1.0133010    -0.4507146
H           6.8301789     1.6610320    -0.5965208
C           5.9279506     0.1210980     0.6197436
H           6.7518385     0.0663183     1.3247943
C           4.8145136    -0.6974293     0.8026134
H           4.7674810    -1.3511821     1.6647717
C           3.7209914    -0.6475969    -0.0729206
C           3.8018381     0.2363349    -1.1638822
F           2.8298121     0.2843228    -2.0857131
C           4.9000259     1.0695611    -1.3411846
H           4.9005212     1.7366970    -2.1970316
C           1.3111691    -3.2806237     0.3337941
H           0.9387043    -4.2738606     0.5417673
C           2.6178435    -2.8565038     0.4618817
C           3.8225368    -3.6553488     0.8535920
H           3.5904587    -4.7188627     0.7479249
H           4.1236870    -3.4899397     1.8957417
H           4.6879809    -3.4327696     0.2205733
N           2.6171812    -1.5220292     0.0924838
N           1.3764735    -1.1035204    -0.3017970
C           0.5943224    -2.1584965    -0.1364886
H          -0.4604633    -2.0779531    -0.3664039
22
440_C10H9FN2_4-6-18-19 (165,) energy =    -595.7917819
C           5.9830473     1.0305190    -0.4860275
H           6.8406919     1.6795609    -0.6341882
C           6.0034202     0.0279907     0.4809024
H           6.8781555    -0.1172191     1.1076229
C           4.8932158    -0.7940739     0.6630161
H           4.9159724    -1.5264446     1.4566841
C           3.7237973    -0.6418990    -0.0996015
C           3.7407030     0.3609044    -1.0918210
F           2.7090399     0.5502930    -1.9263835
C           4.8418058     1.1920422    -1.2670563
H           4.7808414     1.9475908    -2.0436320
C           1.3291840    -3.3017701     0.3013855
H           0.9586862    -4.2882405     0.5424783
C           2.6143044    -2.8464391     0.5067740
C           3.7701569    -3.6361282     1.0408428
H           3.4833094    -4.6911582     1.0647915
H           4.0493382    -3.3532932     2.0636213
H           4.6631156    -3.5458626     0.4130602
N           2.6267526    -1.5309701     0.0579424
N           1.4123381    -1.1718800    -0.4629575
C           0.6356903    -2.2278328    -0.2951629
H          -0.3972978    -2.1822623    -0.6157283
22
440_C10H9FN2_4-6-18-19 (180,) energy =    -595.7888504
C           5.9846554     1.1135601    -0.4563254
H           6.8096516     1.8144659    -0.5380400
C           6.1145575    -0.0693200     0.2659012
H           7.0481973    -0.3141270     0.7634544
C           5.0463116    -0.9582991     0.3610165
H           5.1930194    -1.8602498     0.9306698
C           3.8064529    -0.7120198    -0.2549827
C           3.7030313     0.4968724    -0.9813577
F           2.5834203     0.8648545    -1.6197537
C           4.7697489     1.3848614    -1.0766949
H           4.6094515     2.2904878    -1.6527176
C           1.3517335    -3.3108420     0.2841762
H           0.9357438    -4.2378034     0.6532291
C           2.6320556    -2.8539286     0.5142291
C           3.6760557    -3.5674620     1.3195350
H           3.2410330    -4.5026873     1.6827473
H           4.0024537    -2.9976561     2.1974351
H           4.5644910    -3.8281712     0.7325745
N           2.7251978    -1.6325094    -0.1471701
N           1.5473303    -1.3232961    -0.7751229
C           0.7322557    -2.3287373    -0.5140740
H          -0.2748015    -2.3108640    -0.9107612
