30
116_C15H11ClN2O_0-6-7-18 (-165,) energy =   -1223.1394394
C           0.4906827    -1.2884601     1.2772047
H           0.9429822    -2.1784061     1.6982632
C          -0.8220917    -0.9587284     1.5790945
H          -1.4001280    -1.5972902     2.2406791
C          -1.3905576     0.1898859     1.0256878
H          -2.4144756     0.4719017     1.2541788
C           1.3097759    -0.4918550     0.4464168
C           2.6908581    -1.0302251     0.1643178
C          -0.6419875     0.9627316     0.1465545
H          -1.0787505     1.8293917    -0.3374841
C           5.7363876     1.5294363    -1.4724254
H           6.4906361     2.1842949    -1.8996481
C           5.0138447     1.9259349    -0.3421583
H           5.2038441     2.8887092     0.1223455
C           0.6778343     0.6138037    -0.1618843
Cl          1.4048323     1.5867893    -1.4439762
C           4.0347235     1.0852454     0.1689987
H           3.4439178     1.4015239     1.0239265
C           3.7616509    -0.1681792    -0.4072364
C           4.5538269    -0.5908735    -1.4967188
N           4.3929586    -1.8620465    -2.0792261
H           4.6630492    -1.9662657    -3.0511895
C           5.5125538     0.2808785    -2.0381857
H           6.0996665    -0.0479316    -2.8920892
C           4.3240155    -3.0704116    -1.3986454
O           4.4141636    -4.1353219    -1.9779589
N           2.8449344    -2.2885990     0.3886100
C           4.1229645    -2.9175012     0.1106375
H           4.1324615    -3.9203089     0.5395464
H           4.9704502    -2.3430523     0.5195121
30
116_C15H11ClN2O_0-6-7-18 (-150,) energy =   -1223.1436543
C           0.5621951    -1.1811803     1.4069856
H           1.0445951    -2.0077494     1.9162124
C          -0.7208118    -0.7862033     1.7625347
H          -1.2451618    -1.3048372     2.5597911
C          -1.3282370     0.2744444     1.0885044
H          -2.3292615     0.6012579     1.3555169
C           1.2996609    -0.5313418     0.3967721
C           2.6549163    -1.0988843     0.0763928
C          -0.6531765     0.9032832     0.0470534
H          -1.1253623     1.6986161    -0.5194025
C           5.7156549     1.5630586    -1.3508788
H           6.4731280     2.2455378    -1.7259413
C           4.9096341     1.9280838    -0.2674582
H           5.0360365     2.8941098     0.2117224
C           0.6357311     0.4935831    -0.3056366
Cl          1.3097176     1.2619945    -1.7436184
C           3.9316934     1.0501036     0.1791625
H           3.2792321     1.3389362     0.9980534
C           3.7407420    -0.2101224    -0.4156423
C           4.6002404    -0.5910390    -1.4701991
N           4.4907896    -1.8408878    -2.1058932
H           4.8251571    -1.9055794    -3.0611407
C           5.5646135     0.3149218    -1.9409759
H           6.2075675     0.0169635    -2.7655174
C           4.3594358    -3.0792770    -1.4928029
O           4.4812306    -4.1144985    -2.1189675
N           2.7755894    -2.3678702     0.2512169
C           4.0585507    -3.0039200     0.0037535
H           4.0285316    -4.0288327     0.3756754
H           4.8860018    -2.4677475     0.4973638
30
116_C15H11ClN2O_0-6-7-18 (-135,) energy =   -1223.1458107
C           0.6524803    -1.0560430     1.4955347
H           1.1761588    -1.8068237     2.0774688
C          -0.5964923    -0.5941487     1.8969365
H          -1.0503052    -0.9796830     2.8052036
C          -1.2603674     0.3608960     1.1257747
H          -2.2360298     0.7328469     1.4256053
C           1.2857068    -0.5748410     0.3357601
C           2.6227824    -1.1593186    -0.0188922
C          -0.6769004     0.8307823    -0.0486046
H          -1.1936451     1.5473533    -0.6779537
C           5.7061672     1.5779079    -1.2418102
H           6.4695982     2.2796108    -1.5658080
C           4.8350227     1.9125032    -0.2000560
H           4.9153457     2.8742313     0.2973648
C           0.5783467     0.3610792    -0.4391149
Cl          1.1876345     0.9290907    -1.9922009
C           3.8533917     1.0086629     0.1833801
H           3.1547189     1.2726823     0.9715671
C           3.7221603    -0.2487471    -0.4335748
C           4.6353885    -0.5918476    -1.4569438
N           4.5671196    -1.8184085    -2.1400410
H           4.9473876    -1.8449961    -3.0797495
C           5.6082394     0.3377365    -1.8592610
H           6.2953144     0.0671504    -2.6572360
C           4.3805781    -3.0812420    -1.5961347
O           4.5202897    -4.0861686    -2.2668935
N           2.7192869    -2.4342168     0.1133453
C           4.0044025    -3.0770431    -0.1160956
H           3.9442847    -4.1189853     0.2006901
H           4.8123987    -2.5790973     0.4450207
30
116_C15H11ClN2O_0-6-7-18 (-120,) energy =   -1223.1460880
C           0.7513772    -0.9034440     1.5693475
H           1.3292612    -1.5519197     2.2201772
C          -0.4684732    -0.3819739     1.9932618
H          -0.8416083    -0.6148413     2.9862858
C          -1.2073675     0.4338390     1.1357025
H          -2.1617359     0.8447823     1.4526241
C           1.2684702    -0.6188337     0.2958937
C           2.5960208    -1.2090101    -0.0858442
C          -0.7272442     0.7180512    -0.1419457
H          -1.2998464     1.3324968    -0.8284508
C           5.6888508     1.5953921    -1.1216608
H           6.4551438     2.3140362    -1.3982987
C           4.7754181     1.8922051    -0.1052369
H           4.8246052     2.8415042     0.4193811
C           0.5004024     0.1962613    -0.5494805
Cl          1.0319397     0.5426912    -2.1922758
C           3.7922318     0.9665858     0.2188007
H           3.0632080     1.2013104     0.9881535
C           3.7021274    -0.2778115    -0.4315450
C           4.6499783    -0.5778992    -1.4380716
N           4.6119062    -1.7753836    -2.1715805
H           5.0214710    -1.7610285    -3.0991095
C           5.6266239     0.3727237    -1.7773535
H           6.3421501     0.1340497    -2.5603681
C           4.3892028    -3.0610837    -1.7003253
O           4.5411605    -4.0315282    -2.4178405
N           2.6779994    -2.4875673    -0.0048317
C           3.9640246    -3.1312832    -0.2361764
H           3.8849917    -4.1879676     0.0220458
H           4.7572937    -2.6728536     0.3770014
30
116_C15H11ClN2O_0-6-7-18 (-105,) energy =   -1223.1449943
C           0.8523525    -0.7056145     1.6318919
H           1.4968399    -1.2155726     2.3419355
C          -0.3519750    -0.1435032     2.0522814
H          -0.6424548    -0.2042671     3.0970416
C          -1.1814765     0.4895703     1.1260647
H          -2.1245398     0.9270238     1.4412254
C           1.2547004    -0.6459250     0.2902524
C           2.5781574    -1.2395060    -0.1086113
C          -0.8057190     0.5598124    -0.2150447
H          -1.4444118     1.0394636    -0.9490846
C           5.6906756     1.6009394    -0.9855727
H           6.4621112     2.3280025    -1.2231865
C           4.7581616     1.8626052     0.0229997
H           4.7963761     2.7936635     0.5802170
C           0.4074147     0.0025772    -0.6177452
Cl          0.8471887     0.1010636    -2.3192489
C           3.7694670     0.9265841     0.2967317
H           3.0259523     1.1378921     1.0584654
C           3.6929663    -0.2974659    -0.3939096
C           4.6554411    -0.5586334    -1.3989110
N           4.6276925    -1.7220268    -2.1845458
H           5.0548527    -1.6659791    -3.1025036
C           5.6382919     0.4032475    -1.6860484
H           6.3655285     0.1932444    -2.4664763
C           4.3788833    -3.0271472    -1.7852848
O           4.5352354    -3.9604528    -2.5496734
N           2.6428554    -2.5199106    -0.0904191
C           3.9245835    -3.1687386    -0.3360414
H           3.8271794    -4.2363275    -0.1355001
H           4.7114680    -2.7544879     0.3153575
30
116_C15H11ClN2O_0-6-7-18 (-90,) energy =   -1223.1431585
C           0.9501777    -0.4727307     1.6450963
H           1.6718665    -0.8093701     2.3845011
C          -0.2556205     0.0949995     2.0545488
H          -0.4656616     0.2138541     3.1135098
C          -1.1890942     0.5019075     1.1008001
H          -2.1335654     0.9415952     1.4084405
C           1.2471639    -0.6493806     0.2865599
C           2.5695699    -1.2431396    -0.1243167
C          -0.9137862     0.3443360    -0.2569238
H          -1.6294976     0.6544785    -1.0108394
C           5.7409216     1.5792981    -0.8584216
H           6.5274138     2.3007223    -1.0611868
C           4.8057386     1.8167833     0.1534491
H           4.8551893     2.7242759     0.7474594
C           0.3007439    -0.2171798    -0.6505672
Cl          0.6290085    -0.3809857    -2.3714662
C           3.7980191     0.8893925     0.3825961
H           3.0518655     1.0900609     1.1436911
C           3.7038833    -0.3072915    -0.3535809
C           4.6658558    -0.5407683    -1.3678091
N           4.6217975    -1.6623740    -2.2110074
H           5.0590300    -1.5675254    -3.1210033
C           5.6687350     0.4137330    -1.6085546
H           6.3951728     0.2228297    -2.3946175
C           4.3466659    -2.9819772    -1.8831041
O           4.4944265    -3.8766960    -2.6936656
N           2.6073571    -2.5226684    -0.1811302
C           3.8757184    -3.1882115    -0.4479780
H           3.7513670    -4.2619814    -0.3030981
H           4.6654125    -2.8265179     0.2306959
30
116_C15H11ClN2O_0-6-7-18 (-75,) energy =   -1223.1405947
C           1.0200868    -0.2350994     1.6030463
H           1.8067893    -0.3993301     2.3343410
C          -0.1956002     0.3116057     2.0109505
H          -0.3385432     0.5965720     3.0492163
C          -1.2232809     0.4841561     1.0839477
H          -2.1753087     0.9084564     1.3897572
C           1.2352315    -0.6353977     0.2759073
C           2.5614708    -1.2140688    -0.1481788
C          -1.0305994     0.1103926    -0.2448101
H          -1.8172908     0.2420607    -0.9800317
C           5.8289801     1.5463945    -0.7388543
H           6.6405842     2.2484303    -0.9077028
C           4.8903688     1.7757884     0.2709886
H           4.9593685     2.6599096     0.8974539
C           0.1922115    -0.4338018    -0.6389319
Cl          0.4025365    -0.8475820    -2.3353608
C           3.8519863     0.8731376     0.4579460
H           3.1066748     1.0824393     1.2152533
C           3.7249372    -0.2965950    -0.3166837
C           4.6867466    -0.5158383    -1.3371828
N           4.6138953    -1.5917823    -2.2371731
H           5.0629526    -1.4624354    -3.1371356
C           5.7229927     0.4135496    -1.5326109
H           6.4480414     0.2284148    -2.3213085
C           4.3136068    -2.9203013    -1.9749381
O           4.4516942    -3.7787667    -2.8250371
N           2.5745024    -2.4896607    -0.2744701
C           3.8252479    -3.1781492    -0.5552519
H           3.6695215    -4.2532226    -0.4581040
H           4.6184783    -2.8680714     0.1447159
30
116_C15H11ClN2O_0-6-7-18 (-60,) energy =   -1223.1364465
C           1.0434289    -0.0231961     1.5382764
H           1.8639694    -0.0369355     2.2480569
C          -0.1840027     0.4988668     1.9424524
H          -0.2834284     0.9332888     2.9329024
C          -1.2749495     0.4557688     1.0763462
H          -2.2363357     0.8623321     1.3768210
C           1.2156193    -0.6289126     0.2831506
C           2.5500780    -1.1745040    -0.1642896
C          -1.1300388    -0.1140626    -0.1865085
H          -1.9636471    -0.1482141    -0.8797415
C           5.9296920     1.4945450    -0.6335435
H           6.7704958     2.1677366    -0.7742042
C           4.9928352     1.7271514     0.3758716
H           5.0893634     2.5878462     1.0306828
C           0.1032503    -0.6372881    -0.5775191
Cl          0.2214085    -1.2712090    -2.2133770
C           3.9183049     0.8610060     0.5298423
H           3.1820306     1.0898564     1.2864833
C           3.7454534    -0.2822933    -0.2757923
C           4.7037895    -0.4963848    -1.3046954
N           4.5953259    -1.5265764    -2.2550507
H           5.0446681    -1.3654506    -3.1496807
C           5.7792226     0.3947234    -1.4643098
H           6.4984825     0.2049511    -2.2571933
C           4.2724726    -2.8584794    -2.0481480
O           4.3906389    -3.6847310    -2.9321205
N           2.5491567    -2.4460245    -0.3409523
C           3.7814177    -3.1546802    -0.6380136
H           3.5997632    -4.2282670    -0.5746900
H           4.5817814    -2.8847439     0.0706068
30
116_C15H11ClN2O_0-6-7-18 (-45,) energy =   -1223.1316470
C           1.0303734     0.3281509     1.2880286
H           1.8686045     0.6500662     1.8884211
C          -0.2231806     0.8534017     1.5891825
H          -0.3236134     1.5703530     2.3987889
C          -1.3346015     0.4583086     0.8494628
H          -2.3200464     0.8597855     1.0676834
C           1.2301399    -0.6253458     0.2741993
C           2.5877540    -1.1993166    -0.0427878
C          -1.1716351    -0.4500059    -0.1922742
H          -2.0176495    -0.7503025    -0.8008301
C           5.9757705     1.4465292    -0.5474810
H           6.8003415     2.1339500    -0.7129578
C           5.2886056     1.4427326     0.6685425
H           5.5839863     2.1131487     1.4699935
C           0.0880690    -0.9781928    -0.4832586
Cl          0.1538981    -2.0272584    -1.8934246
C           4.2181739     0.5742743     0.8530788
H           3.7208585     0.5698085     1.8144115
C           3.8001406    -0.3175336    -0.1510755
C           4.5736294    -0.3708962    -1.3372214
N           4.3080775    -1.3135212    -2.3495792
H           4.6210065    -1.0838674    -3.2866397
C           5.6298538     0.5328277    -1.5338304
H           6.1946183     0.4866031    -2.4617643
C           4.1353126    -2.6820092    -2.1644805
O           4.2032621    -3.4610129    -3.0942020
N           2.6116750    -2.4597375    -0.2760959
C           3.8482260    -3.0815092    -0.7157227
H           3.7379644    -4.1661063    -0.6932827
H           4.7119734    -2.7937396    -0.0941376
30
116_C15H11ClN2O_0-6-7-18 (-30,) energy =   -1223.1308296
C           1.0715074     0.5183465     1.0048199
H           1.9576363     1.0103393     1.3772611
C          -0.1627119     1.0701332     1.3321156
H          -0.2054976     1.9528415     1.9634396
C          -1.3289215     0.4909638     0.8398476
H          -2.3037151     0.9052237     1.0809177
C           1.2113307    -0.6334968     0.2054879
C           2.5672508    -1.2202406    -0.0825230
C          -1.2348933    -0.6196645     0.0075085
H          -2.1272108    -1.0672189    -0.4163613
C           5.9928947     1.4024656    -0.3947911
H           6.8289143     2.0869559    -0.5062514
C           5.3149673     1.3052605     0.8228377
H           5.6316153     1.8952740     1.6776477
C           0.0070221    -1.1743970    -0.3135218
Cl         -0.0693959    -2.5059430    -1.4581707
C           4.2286757     0.4433248     0.9389204
H           3.7302375     0.3533420     1.8979914
C           3.7848338    -0.3386016    -0.1428226
C           4.5604200    -0.3209552    -1.3251679
N           4.2901655    -1.2104096    -2.3843956
H           4.6027771    -0.9397315    -3.3106293
C           5.6306138     0.5779686    -1.4527248
H           6.1976328     0.5937274    -2.3803184
C           4.1421763    -2.5893889    -2.2510247
O           4.2214582    -3.3303763    -3.2102069
N           2.6150161    -2.4719232    -0.3574368
C           3.8626847    -3.0537749    -0.8174439
H           3.7705904    -4.1400722    -0.8423890
H           4.7226928    -2.7797847    -0.1845209
30
116_C15H11ClN2O_0-6-7-18 (-15,) energy =   -1223.1319258
C           1.0956151     0.6342230     0.7311664
H           2.0020685     1.2024919     0.8826212
C          -0.1097810     1.2320965     1.0808379
H          -0.1082920     2.2245566     1.5220007
C          -1.3047544     0.5556758     0.8535401
H          -2.2598107     1.0008821     1.1173724
C           1.1862267    -0.6497553     0.1516574
C           2.5354734    -1.2442561    -0.1487814
C          -1.2662826    -0.7029219     0.2635124
H          -2.1846895    -1.2418924     0.0580674
C           5.9867206     1.3605938    -0.2413832
H           6.8341594     2.0384227    -0.2901381
C           5.2620443     1.2174633     0.9450003
H           5.5504354     1.7670350     1.8360166
C          -0.0524647    -1.3040185    -0.0835657
Cl         -0.2340180    -2.8720952    -0.8532600
C           4.1634561     0.3643819     0.9788092
H           3.6082010     0.2496120     1.9045297
C           3.7558170    -0.3642307    -0.1537198
C           4.5697030    -0.2976870    -1.3068459
N           4.3254125    -1.1269655    -2.4193812
H           4.6689823    -0.8111265    -3.3200088
C           5.6531586     0.5940330    -1.3510013
H           6.2526801     0.6493245    -2.2563366
C           4.1615138    -2.5092934    -2.3611372
O           4.2548697    -3.2011820    -3.3550637
N           2.5905147    -2.4765923    -0.5014911
C           3.8461609    -3.0397819    -0.9584541
H           3.7511238    -4.1234451    -1.0371788
H           4.6925006    -2.8001468    -0.2936476
30
116_C15H11ClN2O_0-6-7-18 (0,) energy =   -1223.1350108
C           1.0942529     0.7003479     0.4725775
H           1.9926049     1.3006167     0.4226241
C          -0.0940765     1.3313983     0.8227437
H          -0.0878140     2.3892846     1.0685223
C          -1.2787182     0.6009773     0.8497232
H          -2.2203369     1.0704022     1.1198623
C           1.1720126    -0.6642549     0.1179326
C           2.5096657    -1.2667469    -0.2125314
C          -1.2471950    -0.7511417     0.5251621
H          -2.1558262    -1.3428997     0.5463343
C           5.9713036     1.3174489    -0.0833230
H           6.8251711     1.9888706    -0.0694863
C           5.1807326     1.1540315     1.0583422
H           5.4199712     1.6852207     1.9746708
C          -0.0505357    -1.3839194     0.1757241
Cl         -0.2203801    -3.1018215    -0.1446911
C           4.0784847     0.3082018     1.0101843
H           3.4554198     0.1900833     1.8916580
C           3.7344800    -0.3992411    -0.1570806
C           4.5978463    -0.2962450    -1.2711003
N           4.3933363    -1.0598409    -2.4357710
H           4.7836881    -0.6998283    -3.2999958
C           5.6883133     0.5886633    -1.2311321
H           6.3298276     0.6714014    -2.1050374
C           4.1790428    -2.4350299    -2.4731240
O           4.2866615    -3.0651484    -3.5061312
N           2.5407816    -2.4653634    -0.6710617
C           3.7951151    -3.0366635    -1.1193369
H           3.6728234    -4.1107085    -1.2655480
H           4.6223009    -2.8615755    -0.4114636
30
116_C15H11ClN2O_0-6-7-18 (15,) energy =   -1223.1390996
C           1.0755040     0.7352455     0.2348739
H           1.9449821     1.3420033     0.0138050
C          -0.1087916     1.3731587     0.5888558
H          -0.1356226     2.4563522     0.6629234
C          -1.2484397     0.6147562     0.8446933
H          -2.1838086     1.0911417     1.1243206
C           1.1772753    -0.6639855     0.0896421
C           2.4975879    -1.2697129    -0.2906252
C          -1.1802490    -0.7723199     0.7503816
H          -2.0501521    -1.3825624     0.9676112
C           5.9693903     1.2724904     0.0444311
H           6.8282523     1.9340372     0.1142297
C           5.1122900     1.1078323     1.1375128
H           5.3017657     1.6309505     2.0699363
C           0.0108577    -1.4085512     0.3919083
Cl         -0.0551642    -3.1634222     0.4171310
C           4.0078571     0.2736279     1.0172108
H           3.3263544     0.1594506     1.8548111
C           3.7293325    -0.4263921    -0.1722440
C           4.6433608    -0.3048468    -1.2440248
N           4.4778541    -1.0114866    -2.4485626
H           4.9228605    -0.6244584    -3.2738280
C           5.7399131     0.5670712    -1.1290760
H           6.4240340     0.6633128    -1.9686336
C           4.1983599    -2.3687884    -2.5778299
O           4.3224083    -2.9405892    -3.6427503
N           2.4875758    -2.4328674    -0.8344413
C           3.7313729    -3.0297185    -1.2815825
H           3.5682450    -4.0864176    -1.4977295
H           4.5369609    -2.9361553    -0.5343370
30
116_C15H11ClN2O_0-6-7-18 (30,) energy =   -1223.1424396
C           1.0149004     0.7417691     0.0447354
H           1.8381621     1.3394648    -0.3309082
C          -0.1708835     1.3725357     0.4082973
H          -0.2558307     2.4521651     0.3265588
C          -1.2396923     0.6103594     0.8764996
H          -2.1728825     1.0837439     1.1683625
C           1.1735751    -0.6563335     0.1016871
C           2.4732998    -1.2614312    -0.3396887
C          -1.1047811    -0.7716837     0.9839811
H          -1.9173229    -1.3775588     1.3701838
C           5.9654441     1.2157388     0.1631068
H           6.8318372     1.8608938     0.2785592
C           5.0528909     1.0623936     1.2123092
H           5.2049217     1.5797250     2.1547193
C           0.0856283    -1.3989081     0.6100435
Cl          0.1554467    -3.1322824     0.8877013
C           3.9419378     0.2482892     1.0343755
H           3.2167062     0.1441580     1.8355494
C           3.7133738    -0.4469836    -0.1685847
C           4.6709882    -0.3230097    -1.2024458
N           4.5348377    -0.9862150    -2.4337702
H           5.0180855    -0.5815950    -3.2283956
C           5.7772117     0.5267477    -1.0272845
H           6.4975548     0.6237419    -1.8358874
C           4.1824725    -2.3156513    -2.6407381
O           4.3030621    -2.8359257    -3.7325987
N           2.4219499    -2.3980779    -0.9336856
C           3.6506426    -3.0197973    -1.3947859
H           3.4487401    -4.0555268    -1.6709000
H           4.4382674    -3.0016060    -0.6234736
30
116_C15H11ClN2O_0-6-7-18 (45,) energy =   -1223.1442566
C           0.9321868     0.7293610    -0.1527440
H           1.6907199     1.3056301    -0.6735618
C          -0.2600059     1.3415741     0.2226987
H          -0.4249305     2.3911334    -0.0025066
C          -1.2346683     0.5989299     0.8887302
H          -2.1697023     1.0608276     1.1928763
C           1.1809442    -0.6319145     0.0961077
C           2.4636787    -1.2345310    -0.3965923
C          -1.0051727    -0.7445334     1.1781823
H          -1.7448867    -1.3294101     1.7141726
C           5.9854997     1.1510764     0.2752112
H           6.8618809     1.7727634     0.4354617
C           5.0237355     1.0115537     1.2814778
H           5.1458285     1.5180513     2.2340219
C           0.1893570    -1.3527502     0.7875434
Cl          0.4134328    -3.0294586     1.2658446
C           3.9024325     0.2267770     1.0470303
H           3.1396358     0.1336346     1.8137693
C           3.7135470    -0.4560431    -0.1697709
C           4.7116031    -0.3348001    -1.1659868
N           4.5992477    -0.9552425    -2.4213469
H           5.1266808    -0.5428284    -3.1832188
C           5.8304777     0.4834044    -0.9321179
H           6.5839879     0.5774270    -1.7102919
C           4.1914631    -2.2557361    -2.6969794
O           4.3242052    -2.7328861    -3.8073198
N           2.3771932    -2.3461301    -1.0303549
C           3.5907729    -2.9922574    -1.5034282
H           3.3519373    -4.0027488    -1.8372330
H           4.3557382    -3.0496022    -0.7117339
30
116_C15H11ClN2O_0-6-7-18 (60,) energy =   -1223.1445866
C           0.8082984     0.6917266    -0.3611586
H           1.4780295     1.2277888    -1.0278007
C          -0.3891528     1.2780713     0.0398008
H          -0.6529999     2.2699436    -0.3152366
C          -1.2429991     0.5843154     0.8980785
H          -2.1789945     1.0298706     1.2229202
C           1.1755780    -0.5957745     0.0612092
C           2.4449046    -1.1997597    -0.4705366
C          -0.8933551    -0.6863740     1.3509524
H          -1.5403995    -1.2315870     2.0297031
C           6.0077261     1.0630934     0.3685790
H           6.8958628     1.6545664     0.5725281
C           5.0069321     0.9327545     1.3373535
H           5.1091941     1.4171667     2.3035957
C           0.3040761    -1.2688628     0.9316868
Cl          0.7040671    -2.8541260     1.5813462
C           3.8722462     0.1872460     1.0472335
H           3.0799385     0.1024331     1.7843484
C           3.7087089    -0.4684324    -0.1881512
C           4.7403242    -0.3492443    -1.1505347
N           4.6484215    -0.9213827    -2.4297482
H           5.2082790    -0.4984625    -3.1620467
C           5.8743290     0.4284563    -0.8589249
H           6.6550228     0.5202665    -1.6101038
C           4.1785064    -2.1817263    -2.7790967
O           4.3091086    -2.6065918    -3.9110923
N           2.3230679    -2.2805562    -1.1483046
C           3.5194621    -2.9496817    -1.6382727
H           3.2453976    -3.9301225    -2.0294153
H           4.2618138    -3.0817626    -0.8343843
30
116_C15H11ClN2O_0-6-7-18 (75,) energy =   -1223.1441483
C           0.6590361     0.6118049    -0.5580179
H           1.2197544     1.0723001    -1.3668062
C          -0.5414436     1.1758755    -0.1327309
H          -0.9163974     2.0761905    -0.6106151
C          -1.2571693     0.5782177     0.9056912
H          -2.1936809     1.0092144     1.2481192
C           1.1649369    -0.5573925     0.0278120
C           2.4303572    -1.1660287    -0.5172654
C          -0.7706162    -0.5779671     1.5131434
H          -1.3122511    -1.0512603     2.3251588
C           6.0341270     0.9652635     0.4724838
H           6.9336809     1.5239796     0.7150415
C           5.0064047     0.8364753     1.4127313
H           5.0982749     1.2901921     2.3947713
C           0.4288258    -1.1367897     1.0696583
Cl          1.0165002    -2.5834138     1.8846955
C           3.8585350     0.1328591     1.0745621
H           3.0474341     0.0505659     1.7908431
C           3.7071397    -0.4834974    -0.1823675
C           4.7627927    -0.3616092    -1.1183301
N           4.6813795    -0.8818023    -2.4204403
H           5.2709917    -0.4477497    -3.1222437
C           5.9114839     0.3728465    -0.7770068
H           6.7111509     0.4661263    -1.5077796
C           4.1769087    -2.1087729    -2.8327839
O           4.3187903    -2.4905111    -3.9789651
N           2.2833837    -2.2125583    -1.2408312
C           3.4660991    -2.9007634    -1.7411684
H           3.1649257    -3.8519445    -2.1814789
H           4.1849816    -3.0961827    -0.9291767
30
116_C15H11ClN2O_0-6-7-18 (90,) energy =   -1223.1433374
C           0.5244892     0.4908052    -0.7166147
H           0.9858129     0.8450515    -1.6341380
C          -0.6830826     1.0358890    -0.2861417
H          -1.1619339     1.8177681    -0.8682970
C          -1.2751490     0.5690550     0.8882273
H          -2.2163978     0.9866743     1.2341107
C           1.1678463    -0.5211385     0.0092003
C           2.4347261    -1.1272660    -0.5421440
C          -0.6628799    -0.4456315     1.6216271
H          -1.1154963    -0.8283546     2.5301571
C           6.0826215     0.8749429     0.5666120
H           6.9935571     1.4013993     0.8371664
C           5.0391617     0.7452475     1.4887760
H           5.1285838     1.1678159     2.4848414
C           0.5434788    -0.9849354     1.1735568
Cl          1.2705849    -2.2863536     2.1161123
C           3.8780937     0.0818347     1.1166809
H           3.0599178     0.0020556     1.8234194
C           3.7254436    -0.4962554    -0.1584843
C           4.7941174    -0.3647870    -1.0799955
N           4.7158880    -0.8250049    -2.4051177
H           5.3253155    -0.3743809    -3.0789971
C           5.9581861     0.3266143    -0.7021304
H           6.7672518     0.4232162    -1.4220670
C           4.1844240    -2.0161516    -2.8805753
O           4.3308982    -2.3476238    -4.0418457
N           2.2685603    -2.1306969    -1.3206513
C           3.4363261    -2.8340080    -1.8353008
H           3.1113994    -3.7549558    -2.3207181
H           4.1370475    -3.0869708    -1.0234778
30
116_C15H11ClN2O_0-6-7-18 (105,) energy =   -1223.1449940
C           0.2914344     0.4681663    -0.5168453
H           0.5257061     0.9994811    -1.4346686
C          -0.8849056     0.7469176     0.1771816
H          -1.5652459     1.5077452    -0.1941204
C          -1.1849811     0.0417948     1.3431693
H          -2.1010203     0.2469115     1.8898562
C           1.1891534    -0.5092619    -0.0650192
C           2.4614648    -0.7505740    -0.8304076
C          -0.3100108    -0.9375936     1.8121426
H          -0.5339975    -1.5016374     2.7113042
C           6.0495113     0.7422779     1.0182500
H           6.9500069     1.1072025     1.5041754
C           4.8467161     1.4451645     1.1387708
H           4.8006861     2.3629533     1.7170145
C           0.8681981    -1.1967102     1.1128199
Cl          1.9461744    -2.4451093     1.7272956
C           3.7035428     0.9506367     0.5245137
H           2.7611247     1.4764682     0.6388904
C           3.7243504    -0.2282741    -0.2439061
C           4.9528905    -0.9197709    -0.3744413
N           5.0625337    -2.1358787    -1.0680897
H           5.8165267    -2.7555312    -0.7928304
C           6.0997396    -0.4257486     0.2690516
H           7.0345588    -0.9715498     0.1676739
C           4.4914907    -2.4899952    -2.2818840
O           4.7956568    -3.5253313    -2.8433965
N           2.3264517    -1.3235442    -1.9694563
C           3.4928509    -1.4754019    -2.8299734
H           4.0152754    -0.5141995    -2.9653348
H           3.1700489    -1.8411744    -3.8053938
30
116_C15H11ClN2O_0-6-7-18 (120,) energy =   -1223.1460874
C           0.1898824     0.3004395    -0.6305478
H           0.3661261     0.6989575    -1.6246356
C          -1.0078538     0.5571983     0.0320819
H          -1.7687926     1.1700255    -0.4422218
C          -1.2250187     0.0201013     1.3015016
H          -2.1558848     0.2101037     1.8282977
C           1.1987655    -0.4812065    -0.0463908
C           2.4676910    -0.7046005    -0.8185915
C          -0.2481232    -0.7757082     1.8981589
H          -0.4104564    -1.2186733     2.8749609
C           6.0949688     0.6308356     1.0697673
H           7.0047415     0.9559354     1.5665541
C           4.9116469     1.3622271     1.2126561
H           4.8906609     2.2632150     1.8181272
C           0.9503033    -1.0168383     1.2264997
Cl          2.1256194    -2.0734304     2.0035260
C           3.7559614     0.9172904     0.5844381
H           2.8276867     1.4651719     0.7131276
C           3.7449898    -0.2398529    -0.2161302
C           4.9555141    -0.9544591    -0.3765063
N           5.0330821    -2.1433863    -1.1203064
H           5.7690212    -2.7954553    -0.8724093
C           6.1149118    -0.5123905     0.2816687
H           7.0358341    -1.0771237     0.1590550
C           4.4544786    -2.4244761    -2.3492983
O           4.7283998    -3.4420754    -2.9569175
N           2.3220800    -1.2202226    -1.9852105
C           3.4862384    -1.3563479    -2.8501249
H           4.0349174    -0.4039582    -2.9356156
H           3.1580688    -1.6647603    -3.8434504
30
116_C15H11ClN2O_0-6-7-18 (135,) energy =   -1223.1458107
C           0.1047011     0.1407608    -0.6976737
H           0.2435305     0.4183180    -1.7370321
C          -1.1200530     0.3409797    -0.0697272
H          -1.9439332     0.7871754    -0.6189636
C          -1.2825984    -0.0373189     1.2636908
H          -2.2324488     0.1129607     1.7690190
C           1.2038716    -0.4189910    -0.0222908
C           2.4726047    -0.6133931    -0.8018257
C          -0.2246797    -0.6288450     1.9501613
H          -0.3438073    -0.9603058     2.9760845
C           6.1501443     0.5374205     1.1075619
H           7.0723892     0.8160584     1.6095709
C           4.9995350     1.3180513     1.2587698
H           5.0174437     2.2114694     1.8754424
C           1.0003914    -0.8217199     1.3092308
Cl          2.2444932    -1.6750196     2.2202728
C           3.8263795     0.9313244     0.6249917
H           2.9213733     1.5157713     0.7609146
C           3.7661560    -0.2163050    -0.1863537
C           4.9465301    -0.9737104    -0.3650440
N           4.9739700    -2.1439720    -1.1431002
H           5.6835049    -2.8323351    -0.9171206
C           6.1227879    -0.5930336     0.3012533
H           7.0200636    -1.1921432     0.1670091
C           4.4083132    -2.3422377    -2.3945391
O           4.6521647    -3.3381456    -3.0487559
N           2.3233604    -1.0807293    -1.9899252
C           3.4876271    -1.2133087    -2.8526325
H           4.0745124    -0.2805232    -2.8873085
H           3.1577658    -1.4609453    -3.8623219
30
116_C15H11ClN2O_0-6-7-18 (150,) energy =   -1223.1436541
C           0.0457795    -0.0216587    -0.7437692
H           0.1631710     0.1455639    -1.8083769
C          -1.2005474     0.1016274    -0.1437197
H          -2.0650285     0.3724445    -0.7427797
C          -1.3325613    -0.1270677     1.2268550
H          -2.2981675    -0.0306287     1.7151993
C           1.2064890    -0.3474882    -0.0133195
C           2.4800326    -0.5031274    -0.7981542
C          -0.2196129    -0.5069347     1.9703031
H          -0.3100599    -0.7343418     3.0269365
C           6.2099275     0.4327067     1.1266733
H           7.1446856     0.6573711     1.6325936
C           5.1075286     1.2818791     1.2694014
H           5.1766081     2.1752621     1.8825065
C           1.0288388    -0.6332702     1.3546932
Cl          2.3159541    -1.2788015     2.3740147
C           3.9157077     0.9621207     0.6338283
H           3.0449519     1.5976969     0.7661690
C           3.7898690    -0.1854527    -0.1697524
C           4.9275071    -1.0026167    -0.3543351
N           4.8943768    -2.1554553    -1.1588908
H           5.5584834    -2.8907977    -0.9429376
C           6.1206480    -0.6936315     0.3191399
H           6.9835504    -1.3410027     0.1836623
C           4.3473039    -2.2726875    -2.4288878
O           4.5437700    -3.2554310    -3.1176136
N           2.3335739    -0.9256085    -2.0046229
C           3.5027116    -1.0723923    -2.8553533
H           4.1410209    -0.1735870    -2.8364776
H           3.1796346    -1.2566790    -3.8806910
30
116_C15H11ClN2O_0-6-7-18 (165,) energy =   -1223.1394399
C           0.0084235    -0.1974555    -0.7649462
H           0.1253960    -0.1404369    -1.8405422
C          -1.2547698    -0.1608509    -0.1937432
H          -2.1315819    -0.0754607    -0.8289531
C          -1.3881256    -0.2383519     1.1936730
H          -2.3669757    -0.2037534     1.6635805
C           1.1934998    -0.2806595    -0.0004620
C           2.4808343    -0.3797464    -0.7812376
C          -0.2517233    -0.3933153     1.9779531
H          -0.3334545    -0.5096795     3.0530993
C           6.2604276     0.3318172     1.1457936
H           7.2081190     0.5000767     1.6495869
C           5.2190292     1.2571922     1.2716633
H           5.3495242     2.1546691     1.8685865
C           1.0176046    -0.4425973     1.3904948
Cl          2.3210108    -0.8455298     2.5119476
C           4.0070938     1.0074528     0.6426261
H           3.1814730     1.7026109     0.7654213
C           3.8026016    -0.1444350    -0.1376593
C           4.8873978    -1.0287019    -0.3232073
N           4.7840861    -2.1628285    -1.1505078
H           5.3954381    -2.9456005    -0.9454326
C           6.0972444    -0.7951703     0.3504896
H           6.9172675    -1.4965096     0.2175575
C           4.2816548    -2.1867910    -2.4448272
O           4.4372294    -3.1479871    -3.1725675
N           2.3509523    -0.7454983    -2.0088178
C           3.5300122    -0.9131660    -2.8381839
H           4.2232820    -0.0596990    -2.7583840
H           3.2253937    -1.0283453    -3.8791586
30
116_C15H11ClN2O_0-6-7-18 (180,) energy =   -1223.1340624
C           0.0229691    -0.4011427    -0.7592295
H           0.1633326    -0.4647702    -1.8310369
C          -1.2519841    -0.4502014    -0.2188336
H          -2.1101214    -0.5594719    -0.8755762
C          -1.4205014    -0.3673090     1.1641899
H          -2.4098227    -0.3971298     1.6119309
C           1.1918727    -0.2372476     0.0215534
C           2.4978257    -0.2708942    -0.7466317
C          -0.2972734    -0.2790931     1.9748598
H          -0.3957048    -0.2641381     3.0546817
C           6.3360064     0.2083859     1.1462939
H           7.2988225     0.3169762     1.6376496
C           5.3668783     1.2102438     1.2606980
H           5.5701713     2.1094793     1.8341840
C           0.9885301    -0.2453294     1.4197776
Cl          2.2745842    -0.3262135     2.6290425
C           4.1311034     1.0364018     0.6515539
H           3.3631510     1.7957126     0.7653809
C           3.8321644    -0.1156482    -0.0963619
C           4.8552318    -1.0679940    -0.2910461
N           4.6726673    -2.1753556    -1.1436110
H           5.2239921    -3.0059752    -0.9570381
C           6.0850726    -0.9151111     0.3687704
H           6.8541187    -1.6710352     0.2307011
C           4.2188738    -2.1029950    -2.4550167
O           4.3286458    -3.0378202    -3.2237443
N           2.3856026    -0.5635837    -1.9955748
C           3.5710558    -0.7590963    -2.8064767
H           4.3189315     0.0385653    -2.6674725
H           3.2869771    -0.8026873    -3.8586312
