16
258_C6H7NOS_0-1-11-12 (-165,) energy =    -761.0133635
C           1.2126852    -0.7638012     0.2456739
N           2.5057856    -0.9675488    -0.1992664
H           2.6662587    -1.7551430    -0.8110998
C           0.2051575    -1.7918195    -0.2466447
H          -0.5732555    -1.2739008    -0.8157224
H          -0.2774371    -2.2540125     0.6197547
H           0.6362956    -2.5786563    -0.8736515
C           5.0202593     1.5098648     0.8837297
H           5.3194480     2.3341126     1.5224680
C           3.7319558     0.8931233     0.9581173
H           2.9381086     1.1867849     1.6287119
C           3.5990685    -0.1319238     0.0578117
S           5.0507117    -0.3361410    -0.9085672
C           5.8418340     0.9639572    -0.0579550
H           6.8601703     1.2248598    -0.3096445
O           0.8970678     0.1582124     0.9804361
16
258_C6H7NOS_0-1-11-12 (-150,) energy =    -761.0126794
C           1.1991064    -0.7346143     0.1921472
N           2.5153613    -1.0233031    -0.1264941
H           2.6907559    -1.8650579    -0.6570036
C           0.1934600    -1.7773038    -0.2726550
H          -0.5192928    -1.2966351    -0.9501339
H          -0.3705971    -2.1337525     0.5944488
H           0.6408246    -2.6365560    -0.7822162
C           5.0210487     1.4863778     0.8982168
H           5.3378105     2.2868418     1.5582722
C           3.7667828     0.8131873     1.0315991
H           3.0124919     1.0475977     1.7688593
C           3.6061298    -0.1732173     0.0947273
S           4.9833667    -0.2599514    -0.9918564
C           5.7902559     1.0194949    -0.1272854
H           6.7813303     1.3276106    -0.4298257
O           0.8661497     0.2629564     0.8094476
16
258_C6H7NOS_0-1-11-12 (-135,) energy =    -761.0117323
C           1.2042077    -0.6929478     0.1282021
N           2.5313520    -1.0532298    -0.0562695
H           2.7141901    -1.9460608    -0.4931042
C           0.2001739    -1.7567319    -0.2907356
H          -0.4437671    -1.3396333    -1.0713738
H          -0.4380373    -1.9954341     0.5652258
H           0.6544983    -2.6804090    -0.6629253
C           5.0393865     1.4689570     0.9278402
H           5.3807706     2.2386125     1.6117051
C           3.8235119     0.7405059     1.1087412
H           3.1203661     0.9051048     1.9138355
C           3.6243897    -0.1963662     0.1309257
S           4.9141537    -0.1597262    -1.0623989
C           5.7433490     1.0892380    -0.1784601
H           6.7031164     1.4459007    -0.5259559
O           0.8638460     0.3746450     0.6058365
16
258_C6H7NOS_0-1-11-12 (-120,) energy =    -761.0107688
C           0.9263673    -0.8361908    -0.0048118
N           2.2272751    -1.3055017     0.1395305
H           2.3861781    -2.2925060    -0.0126905
C          -0.0987531    -1.9236078    -0.2925184
H          -1.0109771    -1.7010842     0.2656557
H           0.2454780    -2.9304987    -0.0349806
H          -0.3492522    -1.9039424    -1.3593669
C           4.8140498     1.2183953     0.8849294
H           5.1742590     2.0404905     1.4938344
C           3.5792762     0.5424326     1.1249101
H           2.8792524     0.7991435     1.9100053
C           3.3553217    -0.4777553     0.2418884
S           4.6509618    -0.5893153    -0.9421705
C           5.5105080     0.7121534    -0.1757387
H           6.4830005     1.0073192    -0.5456274
O           0.6296711     0.3396764     0.0908299
16
258_C6H7NOS_0-1-11-12 (-105,) energy =    -761.0100708
C           0.9703404    -0.7190167    -0.1273470
N           2.2465674    -1.1607992     0.2021392
H           2.4119316    -2.1588119     0.2089112
C          -0.0425482    -1.8360011    -0.3366390
H          -0.9834452    -1.5479318     0.1381746
H           0.2800595    -2.8039635     0.0602117
H          -0.2341214    -1.9451082    -1.4100388
C           4.8132296     1.3481905     1.0712255
H           5.1866973     2.1121669     1.7443066
C           3.6106727     0.6137940     1.2972095
H           2.9514324     0.7586093     2.1450367
C           3.3578065    -0.3089466     0.3200626
S           4.5952569    -0.2610875    -0.9285949
C           5.4592663     0.9778098    -0.0753795
H           6.3979508     1.3484495    -0.4649095
O           0.6850777     0.4574472    -0.2422348
16
258_C6H7NOS_0-1-11-12 (-90,) energy =    -761.0098357
C           0.9741247    -0.7394285    -0.2770729
N           2.2134171    -1.1309472     0.2099899
H           2.3518679    -2.1076835     0.4347205
C          -0.0534184    -1.8600514    -0.3545837
H          -1.0140293    -1.4765673    -0.0025199
H           0.2160722    -2.7472711     0.2274493
H          -0.1799427    -2.1552451    -1.4021887
C           4.8562625     1.2919296     1.1065895
H           5.2915461     1.9824792     1.8205508
C           3.6691121     0.5404027     1.3529113
H           3.0882952     0.5902287     2.2671063
C           3.3175236    -0.2638030     0.3033711
S           4.4523827    -0.0946914    -1.0273020
C           5.3920163     1.0501158    -0.1288020
H           6.2836912     1.4803364    -0.5651510
O           0.7325831     0.4003164    -0.6266203
16
258_C6H7NOS_0-1-11-12 (-75,) energy =    -761.0100497
C           0.9818994    -0.8068703    -0.4060770
N           2.1857736    -1.1054120     0.2132359
H           2.2777346    -1.9982646     0.6793228
C          -0.0574391    -1.9164243    -0.3337533
H          -1.0292828    -1.4681693    -0.1136872
H           0.1647731    -2.6827630     0.4158774
H          -0.1316388    -2.3998476    -1.3142122
C           4.9334808     1.2080717     1.0736196
H           5.4504922     1.8160598     1.8078569
C           3.7582350     0.4511713     1.3573324
H           3.2755981     0.4079235     2.3276917
C           3.2792980    -0.2219714     0.2652375
S           4.2860517     0.0636660    -1.1434401
C           5.3307463     1.1013411    -0.2311707
H           6.1650976     1.5901644    -0.7164040
O           0.7825172     0.2449977    -0.9849809
16
258_C6H7NOS_0-1-11-12 (-60,) energy =    -761.0108060
C           1.0736957    -0.9788578    -0.6677334
N           2.1897114    -1.1497673     0.1356803
H           2.1489141    -1.8551017     0.8586736
C          -0.0410195    -1.9866650    -0.4316179
H          -0.9300400    -1.4508153    -0.0835739
H           0.2091223    -2.7662428     0.2948178
H          -0.2965887    -2.4575789    -1.3851148
C           4.9879577     1.0531923     1.0807601
H           5.5417234     1.5818237     1.8488812
C           3.8056192     0.2971602     1.3376568
H           3.3657146     0.1664446     2.3209770
C           3.2673266    -0.2508919     0.2020075
S           4.2277897     0.1401722    -1.2093579
C           5.3331531     1.0640948    -0.2419790
H           6.1453186     1.5979234    -0.7170516
O           0.9998410    -0.1042217    -1.5125090
16
258_C6H7NOS_0-1-11-12 (-45,) energy =    -761.0123797
C           1.1096926    -1.0459561    -0.7227630
N           2.1567050    -1.1128209     0.1790796
H           2.0332964    -1.6876542     1.0016186
C          -0.0491369    -1.9858901    -0.4335561
H          -0.9488042    -1.3882889    -0.2543513
H           0.1152309    -2.6440623     0.4253427
H          -0.2356277    -2.5981846    -1.3205322
C           5.0252227     0.9971083     1.0944091
H           5.6426559     1.4466404     1.8644383
C           3.8619526     0.2185478     1.3714896
H           3.5100292    -0.0172462     2.3708792
C           3.2278271    -0.2093288     0.2321716
S           4.0672911     0.3219789    -1.2077694
C           5.2631459     1.1368008    -0.2435237
H           6.0349846     1.7182386    -0.7297603
O           1.1334640    -0.3113976    -1.6965332
16
258_C6H7NOS_0-1-11-12 (-30,) energy =    -761.0141596
C           1.1407544    -1.0892772    -0.7432206
N           2.1106030    -1.0614262     0.2378832
H           1.9285832    -1.5576292     1.0998515
C          -0.0507283    -1.9851862    -0.4519007
H          -0.9528500    -1.3664996    -0.4057644
H           0.0370621    -2.5517350     0.4804270
H          -0.1770729    -2.6848450    -1.2831322
C           5.0571741     0.9588936     1.0899700
H           5.7294591     1.3502814     1.8457570
C           3.9123811     0.1623838     1.3918586
H           3.6307066    -0.1449421     2.3942157
C           3.2014010    -0.1847314     0.2698476
S           3.9365528     0.4494588    -1.1851431
C           5.2035525     1.1900025    -0.2478077
H           5.9486112     1.7958198    -0.7459401
O           1.2527486    -0.4593637    -1.7841665
16
258_C6H7NOS_0-1-11-12 (-15,) energy =    -761.0154367
C           1.1711449    -1.1140999    -0.7551913
N           2.0672379    -0.9907432     0.2827450
H           1.8478223    -1.4380125     1.1624557
C          -0.0378976    -1.9873864    -0.4700020
H          -0.9416544    -1.3745962    -0.5489395
H          -0.0189008    -2.4632697     0.5154853
H          -0.1011364    -2.7632488    -1.2385287
C           5.0967038     0.9268166     1.0751029
H           5.8150788     1.2650886     1.8139900
C           3.9659104     0.1164570     1.3924930
H           3.7358194    -0.2454176     2.3898247
C           3.1955328    -0.1651517     0.2911948
S           3.8498690     0.5543560    -1.1630513
C           5.1696868     1.2369088    -0.2522767
H           5.9016985     1.8518690    -0.7584895
O           1.3501706    -0.5677914    -1.8347877
16
258_C6H7NOS_0-1-11-12 (0,) energy =    -761.0158794
C           1.1928188    -1.1293299    -0.7594100
N           2.0169999    -0.9063938     0.3191249
H           1.7725871    -1.3217450     1.2077351
C          -0.0262499    -1.9901158    -0.4799138
H          -0.9274784    -1.3986127    -0.6702266
H          -0.0692503    -2.3809282     0.5415545
H          -0.0322224    -2.8289713    -1.1821350
C           5.1271597     0.8930775     1.0752361
H           5.8842773     1.1748752     1.7989929
C           4.0041182     0.0721562     1.3930220
H           3.8091437    -0.3390596     2.3786402
C           3.1881744    -0.1439570     0.3097779
S           3.7843854     0.6578922    -1.1264745
C           5.1442384     1.2830456    -0.2327058
H           5.8727288     1.9019247    -0.7392247
O           1.4286615    -0.6588534    -1.8640224
16
258_C6H7NOS_0-1-11-12 (15,) energy =    -761.0154294
C           1.2042045    -1.1538659    -0.7657517
N           1.9623167    -0.8234317     0.3348269
H           1.6925052    -1.1977359     1.2343308
C          -0.0231586    -2.0002930    -0.4780256
H          -0.9163615    -1.4397671    -0.7714898
H          -0.1215856    -2.2986578     0.5704365
H           0.0174757    -2.8987389    -1.1010201
C           5.1467155     0.8521894     1.0669301
H           5.9376207     1.0752372     1.7748492
C           4.0288939     0.0203849     1.3746754
H           3.8630927    -0.4447529     2.3414749
C           3.1736854    -0.1258962     0.3103060
S           3.7223455     0.7634672    -1.0927677
C           5.1172556     1.3265020    -0.2127728
H           5.8447532     1.9508407    -0.7140066
O           1.4902223    -0.7678902    -1.8906360
16
258_C6H7NOS_0-1-11-12 (30,) energy =    -761.0141534
C           1.2123169    -1.1894161    -0.7689656
N           1.9080219    -0.7405663     0.3347942
H           1.6133817    -1.0644198     1.2461670
C          -0.0233842    -2.0183816    -0.4637884
H          -0.9022141    -1.5052592    -0.8666083
H          -0.1812998    -2.2060192     0.6028720
H           0.0617617    -2.9768329    -0.9846786
C           5.1610497     0.8054389     1.0531533
H           5.9826465     0.9645375     1.7430848
C           4.0446657    -0.0353650     1.3410162
H           3.9044587    -0.5631654     2.2792491
C           3.1528332    -0.1014105     0.2993315
S           3.6620530     0.8840444    -1.0531417
C           5.0923247     1.3713316    -0.1876690
H           5.8192747     2.0061227    -0.6764084
O           1.5479539    -0.9027092    -1.9083375
16
258_C6H7NOS_0-1-11-12 (45,) energy =    -761.0123690
C           1.2419764    -1.2396602    -0.7738604
N           1.8702863    -0.6610185     0.3143551
H           1.5241182    -0.8924661     1.2356599
C          -0.0185719    -2.0236977    -0.4475161
H          -0.8678023    -1.5544792    -0.9540795
H          -0.2383923    -2.0900865     0.6226229
H           0.0851080    -3.0343999    -0.8534214
C           5.1815525     0.7648068     1.0341930
H           6.0325016     0.8530741     1.7007720
C           4.0663180    -0.0880931     1.2889660
H           3.9559495    -0.6979165     2.1801233
C           3.1346976    -0.0557416     0.2818416
S           3.6052809     1.0460808    -0.9928689
C           5.0742136     1.4387592    -0.1492434
H           5.7944655     2.1005048    -0.6113579
O           1.6460280    -1.0911848    -1.9154379
16
258_C6H7NOS_0-1-11-12 (60,) energy =    -761.0108038
C           1.2961327    -1.3154828    -0.7560983
N           1.8410898    -0.6052193     0.3014160
H           1.3923714    -0.6810740     1.2040318
C          -0.0168900    -2.0169930    -0.4430591
H          -0.7967643    -1.6134956    -1.0963523
H          -0.3407929    -1.9158921     0.5975684
H           0.0903205    -3.0794022    -0.6813880
C           5.2094871     0.7192625     0.9911447
H           6.1010692     0.7275136     1.6084984
C           4.1007067    -0.1499904     1.2157548
H           4.0396002    -0.8643111     2.0303158
C           3.1073693     0.0027761     0.2831557
S           3.5155599     1.2447197    -0.8824753
C           5.0408794     1.5215916    -0.1028471
H           5.7405187     2.2286729    -0.5280860
O           1.8104441    -1.3486734    -1.8599937
16
258_C6H7NOS_0-1-11-12 (75,) energy =    -761.0100498
C           1.2554128    -1.4667911     0.4420836
N           2.0441824    -0.7217205    -0.4208724
H           1.7361964    -0.6101177    -1.3777212
C           0.0135519    -2.0695203    -0.1990566
H          -0.8269362    -1.9458824     0.4880986
H           0.1704337    -3.1449596    -0.3379208
H          -0.2436442    -1.6276621    -1.1671456
C           4.7970864     1.5862248     0.4376489
H           5.1556968     2.5967244     0.5999466
C           3.4472595     1.2684341     0.1035955
H           2.6577455     2.0011842    -0.0234871
C           3.2333437    -0.0770437    -0.0345563
S           4.7113476    -0.9823493     0.2400090
C           5.5904876     0.4774354     0.5507373
H           6.6371772     0.4310147     0.8206067
O           1.5469531    -1.6477798     1.6097986
16
258_C6H7NOS_0-1-11-12 (90,) energy =    -761.0098357
C           1.2173933    -1.3372086     0.4668027
N           2.0628912    -0.7363597    -0.4553658
H           1.8605341    -0.8574949    -1.4392609
C           0.0344914    -2.0709377    -0.1496712
H          -0.8582882    -1.8494144     0.4399892
H           0.2125392    -3.1501966    -0.0858045
H          -0.1506142    -1.8094403    -1.1965212
C           4.7420684     1.6098618     0.5326934
H           5.0576552     2.6109355     0.8053203
C           3.3952714     1.2614794     0.2171515
H           2.5625043     1.9557581     0.2248038
C           3.2444504    -0.0614897    -0.0973210
S           4.7786126    -0.9118359     0.0047288
C           5.5987464     0.5460030     0.4551423
H           6.6648405     0.5330597     0.6391375
O           1.4121244    -1.2939142     1.6667086
16
258_C6H7NOS_0-1-11-12 (105,) energy =    -761.0100709
C           1.0821989    -1.2418122     0.4684346
N           2.0185481    -0.8309767    -0.4735783
H           1.8975851    -1.1481947    -1.4265817
C          -0.0707221    -2.0502076    -0.1100723
H          -0.9956314    -1.7408403     0.3820065
H           0.0875060    -3.1103526     0.1184027
H          -0.1838923    -1.9410000    -1.1935327
C           4.7528241     1.4012331     0.6126296
H           5.0846045     2.3660442     0.9803538
C           3.3896830     1.0893010     0.3278161
H           2.5602514     1.7727996     0.4665818
C           3.2209670    -0.1833434    -0.1433945
S           4.7555408    -1.0400045    -0.2092305
C           5.6044931     0.3624264     0.3579156
H           6.6815336     0.3395681     0.4565026
O           1.1762149    -0.9835480     1.6529117
16
258_C6H7NOS_0-1-11-12 (120,) energy =    -761.0107694
C           1.0358735    -1.1414012     0.4327482
N           2.0457547    -0.8618964    -0.4812446
H           1.9963796    -1.3163979    -1.3832182
C          -0.0625435    -2.0440664    -0.1101430
H          -1.0275019    -1.6720123     0.2418954
H           0.0722800    -3.0524969     0.2972885
H          -0.0780980    -2.1095238    -1.2028596
C           4.7502249     1.3629191     0.6826371
H           5.0676776     2.2977528     1.1317046
C           3.3829445     1.0285839     0.4421898
H           2.5403776     1.6551316     0.7064796
C           3.2349166    -0.1909101    -0.1592110
S           4.7911070    -0.9760984    -0.3944463
C           5.6236584     0.3970142     0.2696544
H           6.7048146     0.4119847     0.2937310
O           1.0260106    -0.7025138     1.5672620
16
258_C6H7NOS_0-1-11-12 (135,) energy =    -761.0117334
C           1.3582328    -0.9984922     0.4996949
N           2.3892914    -0.7594912    -0.3974253
H           2.3782591    -1.2744121    -1.2669942
C           0.3007418    -1.9693869    -0.0045159
H          -0.6791187    -1.4875183     0.0605481
H           0.2812819    -2.8395776     0.6594092
H           0.4605943    -2.3124226    -1.0316121
C           5.0109171     1.5737247     0.7436769
H           5.3013320     2.4799430     1.2642533
C           3.6546088     1.1434970     0.6131545
H           2.8022097     1.6531954     1.0413178
C           3.5398611    -0.0127040    -0.1103502
S           5.1147154    -0.6196292    -0.6007558
C           5.9072904     0.7457439     0.1315858
H           6.9796114     0.8540294     0.0448030
O           1.2883100    -0.4651445     1.5925798
16
258_C6H7NOS_0-1-11-12 (150,) energy =    -761.0126791
C           1.3097316    -0.9512278     0.4610480
N           2.4160669    -0.8231133    -0.3620362
H           2.4581037    -1.4166743    -1.1785057
C           0.2779338    -1.9604761    -0.0201255
H          -0.6936314    -1.4630282    -0.0927814
H           0.1847081    -2.7503551     0.7321067
H           0.5153570    -2.4190392    -0.9852363
C           5.0142803     1.5426774     0.7692194
H           5.3069454     2.4244081     1.3292537
C           3.6675556     1.0668969     0.7061019
H           2.8286265     1.5115362     1.2218323
C           3.5478748    -0.0479734    -0.0808046
S           5.1031361    -0.5524352    -0.7231734
C           5.8967833     0.7937584     0.0469031
H           6.9567800     0.9460304    -0.1012318
O           1.1603554    -0.3018343     1.4822103
16
258_C6H7NOS_0-1-11-12 (165,) energy =    -761.0133632
C           1.2248829    -0.8300828     0.3112738
N           2.4359138    -0.8460332    -0.3554136
H           2.5460106    -1.5188070    -1.1008289
C           0.2053094    -1.8340587    -0.2052538
H          -0.6807474    -1.2912745    -0.5490017
H          -0.1064497    -2.4736973     0.6259970
H           0.5706804    -2.4662268    -1.0207356
C           4.9974791     1.5279478     0.8431917
H           5.2811051     2.3918279     1.4349348
C           3.6584280     1.0290070     0.7827875
H           2.8158221     1.4393740     1.3191919
C           3.5519760    -0.0619312    -0.0403106
S           5.1035962    -0.5025864    -0.7337333
C           5.8851928     0.8241470     0.0839857
H           6.9432962     0.9913905    -0.0604569
O           0.9798707    -0.0676427     1.2323425
16
258_C6H7NOS_0-1-11-12 (180,) energy =    -761.0136175
C           1.2148619    -0.7963282     0.2813400
N           2.4719255    -0.9086187    -0.2811300
H           2.6103992    -1.6403968    -0.9634775
C           0.2024397    -1.8133275    -0.2236026
H          -0.6345664    -1.2776311    -0.6823166
H          -0.1947981    -2.3667872     0.6326190
H           0.6056955    -2.5261979    -0.9497941
C           5.0077449     1.5206362     0.8612924
H           5.2968257     2.3650189     1.4780432
C           3.6906969     0.9625559     0.8714381
H           2.8686240     1.3130724     1.4772753
C           3.5741560    -0.0955096     0.0073086
S           5.0837928    -0.4177099    -0.8288172
C           5.8679465     0.8968483     0.0067894
H           6.9080259     1.1118290    -0.1941087
O           0.9291174     0.0487199     1.1148899
