16
258_C6H7NOS_3-0-1-11 (-165,) energy =    -761.0129072
C           0.9629819    -0.9102678     0.1594037
N           2.1892883    -0.9794619    -0.4793102
H           2.3281611    -1.7549941    -1.1124675
C           0.0158554    -2.0498820    -0.1831312
H          -1.0100966    -1.6773246    -0.1515689
H           0.1130987    -2.8327896     0.5782282
H           0.2071212    -2.4980227    -1.1640568
C           4.8281278     1.2595138     0.8117206
H           5.1443545     2.0752869     1.4531832
C           3.4769257     0.7936118     0.7512323
H           2.6517995     1.1967123     1.3191845
C           3.3309179    -0.2475388    -0.1285081
S           4.8519024    -0.6595791    -0.9020576
C           5.6834770     0.5876358    -0.0104487
H           6.7437412     0.7342088    -0.1610361
O           0.6827953    -0.0423278     0.9700132
16
258_C6H7NOS_3-0-1-11 (-150,) energy =    -761.0104360
C           0.9579062    -0.8219702     0.0906039
N           2.1522253    -0.8300543    -0.6209846
H           2.2939187    -1.6292830    -1.2252571
C           0.1056264    -2.0648974    -0.1079558
H          -0.9363480    -1.8239022     0.1099931
H           0.4374025    -2.8325247     0.6015164
H           0.1774302    -2.4818258    -1.1188603
C           4.8737892     1.2038475     0.8335291
H           5.2114312     1.9910568     1.4993194
C           3.4978564     0.8388259     0.6902299
H           2.6723700     1.3012346     1.2111942
C           3.3275048    -0.1858784    -0.2034110
S           4.8553872    -0.7015365    -0.8960903
C           5.7233648     0.4768742     0.0534331
H           6.7980320     0.5482616    -0.0378162
O           0.6639539     0.0620872     0.8764179
16
258_C6H7NOS_3-0-1-11 (-135,) energy =    -761.0061813
C           0.9211236    -0.7541932     0.0126913
N           2.0834135    -0.6815629    -0.7632416
H           2.2204285    -1.4769364    -1.3756395
C           0.2006087    -2.0898018    -0.0551601
H          -0.8310683    -1.9655144     0.2784002
H           0.7077763    -2.7833957     0.6265322
H           0.2078659    -2.5355594    -1.0565978
C           4.8684732     1.1334306     0.8554443
H           5.2249111     1.8853799     1.5515145
C           3.4799808     0.8666309     0.6357137
H           2.6619376     1.3787406     1.1219911
C           3.2856124    -0.1293099    -0.2840167
S           4.8073297    -0.7381611    -0.9102990
C           5.7049400     0.3640420     0.1023496
H           6.7850461     0.3669558     0.0607739
O           0.5947818     0.1336083     0.7780282
16
258_C6H7NOS_3-0-1-11 (-120,) energy =    -761.0005161
C           0.8900911    -0.7046560    -0.0549538
N           2.0201102    -0.5314792    -0.8833631
H           2.1527630    -1.3037535    -1.5276736
C           0.3396581    -2.1185688    -0.0107431
H          -0.6618769    -2.1129153     0.4227373
H           1.0020848    -2.7105575     0.6328294
H           0.3095330    -2.6028076    -0.9939231
C           4.8485493     1.0646905     0.8868713
H           5.2203393     1.7871007     1.6058203
C           3.4585937     0.8975284     0.5916767
H           2.6535093     1.4632524     1.0404875
C           3.2423006    -0.0742498    -0.3478302
S           4.7478700    -0.7887448    -0.8967227
C           5.6672638     0.2446246     0.1682394
H           6.7462015     0.1791736     0.1749572
O           0.5032203     0.1768389     0.6847628
16
258_C6H7NOS_3-0-1-11 (-105,) energy =    -760.9942861
C           0.8529356    -0.6577905    -0.0842459
N           1.9400481    -0.3631529    -0.9633752
H           2.0567767    -1.0904735    -1.6633345
C           0.5004802    -2.1274557     0.0411054
H          -0.4460542    -2.2418017     0.5721063
H           1.2994160    -2.6067160     0.6207517
H           0.4426044    -2.6397147    -0.9266586
C           4.8256873     0.9893044     0.9162562
H           5.2265386     1.6920705     1.6390078
C           3.4437828     0.9428332     0.5506123
H           2.6715656     1.5872756     0.9507563
C           3.1845989    -0.0182529    -0.3885188
S           4.6441371    -0.8856188    -0.8381156
C           5.6009515     0.0850428     0.2513016
H           6.6699709    -0.0667078     0.3047686
O           0.3790951     0.1996212     0.6267213
16
258_C6H7NOS_3-0-1-11 (-90,) energy =    -760.9948789
C           0.8419752    -0.7352205    -0.2582547
N           1.9963833    -0.6685516    -1.1148116
H           1.7563480    -0.0106482    -1.8606427
C           0.6603228    -2.0706351     0.4246559
H          -0.0669123    -1.9904525     1.2348277
H           1.6065019    -2.4746032     0.7969920
H           0.2806104    -2.7691352    -0.3306723
C           4.7213435     0.7677829     0.9731200
H           5.0475976     1.3997884     1.7919976
C           3.3523560     0.6002662     0.6013777
H           2.5192796     1.0914477     1.0925188
C           3.1918583    -0.2295025    -0.4781818
S           4.7373501    -0.8432160    -1.0383250
C           5.5821643     0.0682024     0.1743284
H           6.6628654     0.0436813     0.2158609
O          -0.0063450     0.1314231    -0.2793005
16
258_C6H7NOS_3-0-1-11 (-75,) energy =    -761.0004824
C           0.7925775    -0.7378459    -0.3619525
N           1.9666365    -0.5788357    -1.1506466
H           1.7434332     0.0761418    -1.9022137
C           0.7560336    -2.0028119     0.4687061
H           0.0344142    -1.9001861     1.2816083
H           1.7379733    -2.2760614     0.8638502
H           0.4238157    -2.8107130    -0.1940544
C           4.7032736     0.6874811     1.0203039
H           5.0352692     1.2635053     1.8772145
C           3.3333920     0.5574662     0.6378502
H           2.5052345     1.0253185     1.1597990
C           3.1649833    -0.2010183    -0.4917717
S           4.7053403    -0.7924220    -1.0896688
C           5.5578440     0.0326724     0.1779330
H           6.6382889    -0.0037300     0.2168393
O          -0.1762121    -0.0262663    -0.5379540
16
258_C6H7NOS_3-0-1-11 (-60,) energy =    -761.0050327
C           0.7296072    -0.7386825    -0.4476030
N           1.9095185    -0.4592280    -1.1689436
H           1.6896880     0.2020745    -1.9136622
C           0.8005391    -1.9305649     0.4860437
H           0.0712323    -1.8145580     1.2905174
H           1.7977542    -2.0935272     0.9007879
H           0.5249110    -2.8149991    -0.1004017
C           4.6967671     0.6243847     1.0294674
H           5.0537729     1.1597145     1.9025294
C           3.3224935     0.5603731     0.6479273
H           2.5146114     1.0423151     1.1885372
C           3.1201188    -0.1581610    -0.5021632
S           4.6355962    -0.7894115    -1.1242434
C           5.5224161    -0.0387427     0.1644764
H           6.6004920    -0.1208693     0.2000782
O          -0.3130764    -0.1787652    -0.7296599
16
258_C6H7NOS_3-0-1-11 (-45,) energy =    -761.0081833
C           1.0538672    -1.7378808     0.4967396
N           2.1352731    -1.1479012     1.1758199
H           2.4281523    -1.7641184     1.9321216
C           0.4207050    -0.9038832    -0.5981456
H          -0.2063312    -1.5474829    -1.2168574
H           1.1566493    -0.3846479    -1.2175143
H          -0.2125462    -0.1436203    -0.1256129
C           4.5987242     1.2436062    -0.2096966
H           4.9559011     2.2626702    -0.3095283
C           3.4424585     0.8782022     0.5432890
H           2.8152311     1.5764158     1.0862615
C           3.1895716    -0.4669484     0.5277673
S           4.3990047    -1.3169984    -0.4362213
C           5.2176770     0.1706725    -0.7889769
H           6.1102590     0.1649581    -1.4005453
O           0.5788994    -2.7839896     0.8990131
16
258_C6H7NOS_3-0-1-11 (-30,) energy =    -761.0104638
C           1.0588150    -1.7302865     0.5640829
N           2.2227752    -1.2485680     1.1732834
H           2.5207456    -1.8653992     1.9247830
C           0.5218464    -0.9136430    -0.5951283
H          -0.3947230    -1.3861105    -0.9497531
H           1.2439144    -0.8500487    -1.4158656
H           0.3072792     0.1098997    -0.2699642
C           4.5519523     1.2710871    -0.2104042
H           4.8638954     2.3059369    -0.2987402
C           3.4285994     0.8440908     0.5595496
H           2.7860344     1.5065120     1.1289530
C           3.2328508    -0.5105432     0.5261038
S           4.4576204    -1.2915994    -0.4765449
C           5.2053414     0.2351793    -0.8186017
H           6.0877488     0.2776026    -1.4433444
O           0.4832699    -2.6981759     1.0286013
16
258_C6H7NOS_3-0-1-11 (-15,) energy =    -761.0116393
C           0.9779224    -1.7320792     0.5182361
N           2.1984552    -1.3604197     1.0786530
H           2.4594586    -1.9505122     1.8628139
C           0.5318164    -0.9559859    -0.7060419
H          -0.4272137    -1.3601802    -1.0315905
H           1.2605987    -1.0359092    -1.5195364
H           0.4211899     0.1080733    -0.4722957
C           4.4669452     1.2868472    -0.1540797
H           4.7487187     2.3332839    -0.1936182
C           3.3456937     0.7954513     0.5789976
H           2.6759346     1.4146525     1.1656461
C           3.1904426    -0.5622460     0.4852519
S           4.4533744    -1.2632511    -0.5285047
C           5.1606754     0.2969101    -0.7940099
H           6.0510203     0.3918742    -1.4015005
O           0.3093669    -2.6072617     1.0405879
16
258_C6H7NOS_3-0-1-11 (0,) energy =    -761.0118853
C           0.9715179    -1.6721239     0.5315827
N           2.2664510    -1.4511245     0.9872983
H           2.5062003    -2.0143286     1.7967891
C           0.5488132    -0.9130133    -0.7119673
H          -0.4156384    -1.3073155    -1.0339921
H           1.2826412    -1.0149207    -1.5177381
H           0.4451836     0.1563235    -0.4984787
C           4.4513671     1.2946172    -0.1790259
H           4.6881685     2.3522164    -0.2176358
C           3.3276809     0.7596380     0.5187087
H           2.6129133     1.3542845     1.0770926
C           3.2393412    -0.6053412     0.4344289
S           4.5648285    -1.2563012    -0.5284898
C           5.2137581     0.3312363    -0.7803579
H           6.1251442     0.4605209    -1.3489587
O           0.2384194    -2.4413075     1.1298830
16
258_C6H7NOS_3-0-1-11 (15,) energy =    -761.0114572
C           0.9422268    -1.5999877     0.5584847
N           2.2820225    -1.5096527     0.9214894
H           2.4893703    -1.9923388     1.7903026
C           0.5415343    -0.9178478    -0.7366487
H          -0.4474981    -1.2838267    -1.0151230
H           1.2577972    -1.1203261    -1.5388888
H           0.4934105     0.1688987    -0.6076798
C           4.4457730     1.2953591    -0.1490939
H           4.6780194     2.3546817    -0.1503270
C           3.3268902     0.7310326     0.5325087
H           2.6123214     1.3025425     1.1151391
C           3.2431525    -0.6305050     0.3959717
S           4.5654808    -1.2400945    -0.5933854
C           5.2074791     0.3573475    -0.7907923
H           6.1126623     0.5114092    -1.3630861
O           0.1637004    -2.2339049     1.2505096
16
258_C6H7NOS_3-0-1-11 (30,) energy =    -761.0102238
C           0.9248532    -1.5379522     0.5710609
N           2.2949558    -1.6142775     0.8239085
H           2.4882303    -2.0742035     1.7097675
C           0.5110942    -0.9003000    -0.7430510
H          -0.4593708    -1.3150128    -1.0210937
H           1.2424282    -1.0800250    -1.5356050
H           0.4000967     0.1840090    -0.6307238
C           4.4412332     1.2490396    -0.1342172
H           4.6530865     2.3125356    -0.1183275
C           3.3076910     0.6582033     0.4994829
H           2.5609736     1.2130374     1.0575666
C           3.2598601    -0.7043004     0.3535715
S           4.6274351    -1.2802897    -0.5899289
C           5.2473292     0.3305710    -0.7490711
H           6.1747180     0.5051888    -1.2781444
O           0.1305830    -2.0400581     1.3472558
16
258_C6H7NOS_3-0-1-11 (45,) energy =    -761.0081579
C           1.0445318    -1.5905160     0.6529889
N           2.4356594    -1.6977528     0.7865988
H           2.6698314    -2.1597045     1.6631075
C           0.5300471    -1.0907771    -0.6832474
H          -0.4247591    -0.5821355    -0.5342306
H           0.3496978    -1.9693337    -1.3138791
H           1.2298228    -0.4334447    -1.2026505
C           4.4246998     1.3266797    -0.0155020
H           4.5806843     2.3974039     0.0580755
C           3.3251984     0.6438533     0.5858776
H           2.5508765     1.1275632     1.1719727
C           3.3501070    -0.7095047     0.3665138
S           4.7406848    -1.1613320    -0.6072322
C           5.2768287     0.4862087    -0.6776310
H           6.1941073     0.7363843    -1.1937468
O           0.3111250    -2.0375855     1.5166385
16
258_C6H7NOS_3-0-1-11 (60,) energy =    -761.0050326
C           1.0662377    -1.5205375     0.6569512
N           2.4575175    -1.7540799     0.6769406
H           2.6991722    -2.2203854     1.5512545
C           0.4884591    -1.1262641    -0.6876752
H          -0.4307599    -0.5549221    -0.5423846
H           0.2347501    -2.0545043    -1.2131464
H           1.1889402    -0.5634365    -1.3086221
C           4.4255018     1.3236505     0.0211685
H           4.5613184     2.3944966     0.1265316
C           3.3171529     0.6094287     0.5686805
H           2.5171726     1.0669736     1.1412974
C           3.3747409    -0.7378548     0.3208508
S           4.8008584    -1.1440832    -0.6189932
C           5.3142426     0.5133453    -0.6293840
H           6.2466434     0.7889569    -1.1036576
O           0.3759604    -1.8242835     1.6116869
16
258_C6H7NOS_3-0-1-11 (75,) energy =    -761.0004824
C           1.0915545    -1.4283633     0.6114244
N           2.4718217    -1.7690914     0.5448132
H           2.7115119    -2.2449527     1.4164610
C           0.4364851    -1.1806877    -0.7305988
H          -0.4813131    -0.6034399    -0.6021333
H           0.1773567    -2.1620109    -1.1455523
H           1.1031414    -0.6826504    -1.4394997
C           4.4502838     1.3411027     0.0776421
H           4.5800198     2.4066853     0.2326444
C           3.3296880     0.6018985     0.5650717
H           2.5148583     1.0324111     1.1376708
C           3.4002031    -0.7337301     0.2636769
S           4.8498370    -1.0968874    -0.6564271
C           5.3586878     0.5614052    -0.5823004
H           6.3034817     0.8580049    -1.0177204
O           0.4670575    -1.5613886     1.6449618
16
258_C6H7NOS_3-0-1-11 (90,) energy =    -760.9948789
C           1.0985706    -1.3225573     0.5671387
N           2.4628256    -1.7637351     0.4442690
H           2.6859601    -2.2376451     1.3230990
C           0.3497601    -1.2700230    -0.7440308
H          -0.5776095    -0.7049450    -0.6328572
H           0.1092200    -2.3041070    -1.0186440
H           0.9598653    -0.8513445    -1.5499811
C           4.5039127     1.3343493     0.1555364
H           4.6563816     2.3859722     0.3729643
C           3.3707908     0.5905919     0.6063450
H           2.5686712     1.0012278     1.2100715
C           3.4122295    -0.7256544     0.2248914
S           4.8470822    -1.0623232    -0.7274423
C           5.3907825     0.5780350    -0.5585720
H           6.3378277     0.8816213    -0.9842305
O           0.5645231    -1.2282666     1.6520507
16
258_C6H7NOS_3-0-1-11 (105,) energy =    -760.9942854
C           1.0347787    -1.1356476     0.6082805
N           2.4036803    -1.5331265     0.7078147
H           2.5706034    -2.3924048     0.1917522
C           0.2966974    -1.6527142    -0.6116263
H          -0.7710003    -1.4481009    -0.5169502
H           0.4509126    -2.7246964    -0.7837567
H           0.6912471    -1.1184081    -1.4850189
C           4.6404736     1.3947063     0.3652679
H           4.9049315     2.4098194     0.6420086
C           3.5149402     0.7004515     0.9103250
H           2.8250933     1.1079231     1.6381203
C           3.3958328    -0.5695548     0.4143193
S           4.6735433    -0.9333994    -0.7332469
C           5.3685719     0.6529045    -0.5179390
H           6.2764048     0.9146560    -1.0432122
O           0.5710460    -0.3081206     1.3603165
16
258_C6H7NOS_3-0-1-11 (120,) energy =    -761.0005155
C           1.0370189    -1.1002603     0.5412562
N           2.3947083    -1.4876923     0.5170665
H           2.5465230    -2.3174844    -0.0466473
C           0.1708903    -1.7365860    -0.5307788
H          -0.8833697    -1.5949603    -0.2869800
H           0.3723957    -2.8049643    -0.6726106
H           0.3886178    -1.2269579    -1.4774931
C           4.6929831     1.4096894     0.4266547
H           4.9483946     2.4172028     0.7375640
C           3.5110235     0.7313046     0.8624263
H           2.7690110     1.1411910     1.5340073
C           3.4117494    -0.5272708     0.3334505
S           4.7810651    -0.9048213    -0.6963720
C           5.4804461     0.6674094    -0.4028870
H           6.4286443     0.9225709    -0.8548355
O           0.6441596    -0.2052715     1.2614829
16
258_C6H7NOS_3-0-1-11 (135,) energy =    -761.0061813
C           1.0523773    -1.0581560     0.4557201
N           2.3945972    -1.4266591     0.3112426
H           2.5379034    -2.2380866    -0.2782388
C           0.0920214    -1.8073023    -0.4520839
H          -0.9222757    -1.7254413    -0.0576519
H           0.3496287    -2.8655257    -0.5762954
H           0.1221526    -1.3343442    -1.4412202
C           4.7634758     1.4080156     0.4677358
H           5.0209842     2.4029758     0.8152172
C           3.5309120     0.7593915     0.7955121
H           2.7507925     1.1791684     1.4144755
C           3.4382552    -0.4860639     0.2334895
S           4.8756866    -0.8888706    -0.6885060
C           5.5917429     0.6579072    -0.3133396
H           6.5758050     0.8957637    -0.6920264
O           0.7071626    -0.1232964     1.1537927
16
258_C6H7NOS_3-0-1-11 (150,) energy =    -761.0104360
C           1.0395515    -1.0051728     0.3605268
N           2.3666744    -1.3388124     0.1150203
H           2.5104136    -2.1436100    -0.4813256
C           0.0322440    -1.8690153    -0.3809429
H          -0.9197898    -1.8478642     0.1524179
H           0.3581614    -2.9085250    -0.4997237
H          -0.1230581    -1.4443971    -1.3800735
C           4.7937399     1.4165975     0.5347533
H           5.0541752     2.3931452     0.9290947
C           3.5198182     0.8018455     0.7496584
H           2.7078463     1.2314738     1.3177938
C           3.4319231    -0.4250879     0.1459025
S           4.9224514    -0.8496822    -0.6776058
C           5.6543722     0.6621684    -0.2061736
H           6.6689700     0.8805006    -0.5082599
O           0.7149046    -0.0452017     1.0376712
16
258_C6H7NOS_3-0-1-11 (165,) energy =    -761.0129072
C           0.9966811    -0.9760704     0.2610559
N           2.3104935    -1.2599761    -0.0703975
H           2.4682898    -2.0821182    -0.6367992
C          -0.0171125    -1.9529847    -0.3142349
H          -0.8538445    -2.0433956     0.3815303
H           0.3969274    -2.9475326    -0.5119282
H          -0.4050483    -1.5477611    -1.2562289
C           4.7748953     1.4067419     0.6068913
H           5.0322232     2.3669935     1.0412364
C           3.4674680     0.8336804     0.7003249
H           2.6237494     1.2827117     1.2027271
C           3.3920789    -0.3808898     0.0691683
S           4.9319746    -0.8396428    -0.6377979
C           5.6699966     0.6372619    -0.0755366
H           6.7123618     0.8275760    -0.2890361
O           0.6712774     0.0032631     0.9121594
16
258_C6H7NOS_3-0-1-11 (180,) energy =    -761.0136177
C           1.0853955    -0.9578655     0.2773479
N           2.3230273    -1.0470146    -0.3304573
H           2.4405331    -1.7560184    -1.0402266
C           0.0601025    -1.9635913    -0.2241224
H          -0.8020247    -1.4180381    -0.6201570
H          -0.2921759    -2.5574707     0.6248299
H           0.4356852    -2.6406676    -0.9978355
C           4.8908334     1.3498237     0.8091714
H           5.1983819     2.1748230     1.4429948
C           3.5754091     0.7888123     0.8426607
H           2.7726585     1.1176718     1.4854290
C           3.4329163    -0.2412040    -0.0509635
S           4.9156700    -0.5328800    -0.9443842
C           5.7242966     0.7556173    -0.0916458
H           6.7571862     0.9793780    -0.3183773
O           0.8254744    -0.1412802     1.1469526
