32
459_C13H17NO_0-3-16-26 (-165,) energy =    -635.6211663
C           0.9085382    -0.8032267     0.0705056
H           1.3807508    -0.5897555     1.0438592
H           1.6792969    -1.1737263    -0.6048787
N           0.3988897     0.4544975    -0.4897958
C          -0.6464214     1.0816420     0.3244918
H          -0.9670969     2.0092385    -0.1480639
H          -0.2313526     1.3409262     1.3135789
C          -0.2275177    -1.8152861     0.2550068
H          -0.6071688    -2.1045755    -0.7338497
H           0.1686429    -2.7226992     0.7275100
C          -1.8295849     0.1215695     0.5080951
H          -2.5769972     0.5930128     1.1583246
H          -2.3052577    -0.0438463    -0.4679143
C          -1.3675601    -1.2203231     1.0949893
H          -1.0137789    -1.0602102     2.1244021
H          -2.2082497    -1.9217778     1.1575277
C           1.1760347     1.1177737    -1.4144423
C           0.2939363     5.1930711    -2.4935816
H           0.0929041     6.2217206    -2.7809475
C           1.4211103     4.8936921    -1.7264401
H           2.0912851     5.6947018    -1.4228942
C           1.7209346     3.5820020    -1.3414610
C           2.9634073     3.2843168    -0.5338530
H           3.5292938     4.1995134    -0.3356549
H           3.6102482     2.5778716    -1.0630269
H           2.7178649     2.8277302     0.4337461
C           0.8369420     2.5563007    -1.7347237
C          -0.2894854     2.8572709    -2.5094657
H          -0.9506369     2.0522797    -2.8215798
C          -0.5646520     4.1703732    -2.8926257
H          -1.4399663     4.3886979    -3.4982514
O           2.1473369     0.5875146    -1.9500879
32
459_C13H17NO_0-3-16-26 (-150,) energy =    -635.6177597
C           0.9998881    -0.6414200     0.0322091
H           1.5864327    -0.2944929     0.8998857
H           1.6881199    -1.0605183    -0.7023697
N           0.3521054     0.5208202    -0.5861719
C          -0.6124813     1.1997930     0.2814214
H          -1.0498039     2.0394516    -0.2605354
H          -0.1008464     1.6085374     1.1700442
C          -0.0387975    -1.6708471     0.4893182
H          -0.5285937    -2.0959956    -0.3964526
H           0.4685826    -2.4945624     1.0067548
C          -1.7017431     0.2162859     0.7323098
H          -2.3873863     0.7299061     1.4177283
H          -2.2863783    -0.0888089    -0.1456420
C          -1.0892519    -1.0219665     1.4033449
H          -0.6117235    -0.7213159     2.3479524
H          -1.8730105    -1.7434383     1.6637619
C           0.9543255     1.1159091    -1.6748829
C           0.4509280     5.3321407    -2.3919406
H           0.3465623     6.3969766    -2.5823893
C           1.3733625     4.8842258    -1.4450631
H           1.9880521     5.6048353    -0.9102059
C           1.5363333     3.5218119    -1.1693395
C           2.5589830     3.0594640    -0.1558385
H           3.2064880     3.8864409     0.1510194
H           3.1926027     2.2667804    -0.5688808
H           2.0859570     2.6587640     0.7503925
C           0.7395008     2.6001431    -1.8777452
C          -0.1687083     3.0483928    -2.8424709
H          -0.7545650     2.3212436    -3.3988870
C          -0.3228694     4.4114413    -3.0970341
H          -1.0354453     4.7482403    -3.8449920
O           1.7222368     0.5035884    -2.4115927
32
459_C13H17NO_0-3-16-26 (-135,) energy =    -635.6126102
C           1.0099858    -0.5291190     0.0112973
H           1.5806230    -0.0306268     0.8137503
H           1.7175169    -0.9653767    -0.6952130
N           0.2286126     0.4828483    -0.7124513
C          -0.7586402     1.1705728     0.1260637
H          -1.2905209     1.9046673    -0.4817697
H          -0.2622919     1.7183076     0.9464133
C           0.0925506    -1.5946953     0.6187534
H          -0.3773088    -2.1613647    -0.1954180
H           0.6930752    -2.3018713     1.2045047
C          -1.7366201     0.1475078     0.7198568
H          -2.4492198     0.6672577     1.3723050
H          -2.3125379    -0.3048491    -0.0981180
C          -0.9900997    -0.9476895     1.4960083
H          -0.5176298    -0.5016682     2.3840313
H          -1.6936007    -1.7050714     1.8621575
C           0.8160027     1.1038304    -1.8056731
C           0.5352369     5.3730203    -2.3105372
H           0.4853559     6.4501005    -2.4462862
C           1.4045692     4.8321982    -1.3622146
H           2.0351784     5.4943936    -0.7731557
C           1.4959015     3.4511289    -1.1527766
C           2.4710460     2.8954777    -0.1392986
H           3.1485996     3.6770798     0.2175692
H           3.0792442     2.0935772    -0.5725909
H           1.9604335     2.4793074     0.7388052
C           0.6823054     2.6061096    -1.9344104
C          -0.1684808     3.1479035    -2.9040767
H          -0.7643050     2.4785042    -3.5191786
C          -0.2540764     4.5278138    -3.0889313
H          -0.9247316     4.9360481    -3.8400279
O           1.5367931     0.4883651    -2.5828670
32
459_C13H17NO_0-3-16-26 (-120,) energy =    -635.6053580
C           1.0058138    -0.4034105    -0.0025702
H           1.5339517     0.2068516     0.7482467
H           1.7460297    -0.8390229    -0.6771743
N           0.1219566     0.4576781    -0.8040126
C          -0.8891569     1.1425716     0.0139479
H          -1.4910320     1.7842296    -0.6336077
H          -0.4199739     1.7912197     0.7748871
C           0.1933761    -1.4915017     0.7063183
H          -0.2372643    -2.1592249    -0.0505215
H           0.8610730    -2.0946442     1.3344850
C          -1.7727356     0.0998537     0.7113173
H          -2.5115460     0.6132257     1.3392529
H          -2.3259401    -0.4600547    -0.0538363
C          -0.9268685    -0.8676492     1.5527547
H          -0.4796280    -0.3166438     2.3936823
H          -1.5596567    -1.6486821     1.9911692
C           0.6762448     1.1212608    -1.9041877
C           0.6331330     5.4206027    -2.2438836
H           0.6369891     6.5026616    -2.3443786
C           1.4497132     4.8086550    -1.2931822
H           2.0959339     5.4212316    -0.6684313
C           1.4725430     3.4183794    -1.1230684
C           2.4005425     2.8062616    -0.0984103
H           3.1438017     3.5376057     0.2337260
H           2.9395773     1.9444748    -0.5062442
H           1.8607224     2.4649412     0.7939552
C           0.6454314     2.6356498    -1.9536846
C          -0.1485082     3.2513465    -2.9302811
H          -0.7510955     2.6289270    -3.5866040
C          -0.1699581     4.6376567    -3.0718662
H          -0.7993079     5.0988605    -3.8279883
O           1.3003289     0.5072641    -2.7583534
32
459_C13H17NO_0-3-16-26 (-105,) energy =    -635.5976844
C           0.9027444    -0.1792943     0.3024067
H           1.1182458     0.6327805     1.0203520
H           1.8503164    -0.5416442    -0.1018717
N           0.1034857     0.3482246    -0.8239990
C          -1.1664803     0.9208867    -0.3437955
H          -1.7223737     1.3171723    -1.1955158
H          -0.9944253     1.7588026     0.3550134
C           0.1503780    -1.3022601     1.0198192
H           0.0267014    -2.1418419     0.3242794
H           0.7541534    -1.6601877     1.8633713
C          -1.9970416    -0.1686065     0.3463754
H          -2.9358617     0.2705274     0.7061082
H          -2.2576304    -0.9333492    -0.3967192
C          -1.2223057    -0.8143004     1.5028433
H          -1.0820439    -0.0730224     2.3034929
H          -1.7968086    -1.6415273     1.9367769
C           0.8595266     1.0905233    -1.7639780
C           0.6413864     5.4026872    -1.9192454
H           0.6066182     6.4881687    -1.9571454
C           1.7212886     4.7619033    -1.3109777
H           2.5251465     5.3572669    -0.8843085
C           1.8140776     3.3665879    -1.2452138
C           3.0336765     2.7256902    -0.6210120
H           3.7644968     3.4877621    -0.3345453
H           3.5102381     2.0310051    -1.3192690
H           2.7830599     2.1541871     0.2810040
C           0.7578156     2.6045025    -1.7936512
C          -0.3144192     3.2519252    -2.4201163
H          -1.1008608     2.6614991    -2.8825471
C          -0.3784295     4.6437470    -2.4877595
H          -1.2165673     5.1254606    -2.9836685
O           1.7315878     0.5343460    -2.4111417
32
459_C13H17NO_0-3-16-26 (-90,) energy =    -635.6027338
C           1.0283550     0.2252132     0.0560304
H           1.6181748     0.1237211     0.9785941
H           1.7320227     0.4694014    -0.7489649
N           0.1179309     1.3799204     0.2375624
C          -0.9161259     1.0754594     1.2573608
H          -1.6172974     1.9143294     1.2806321
H          -0.3844502     1.0646719     2.2200404
C           0.3037742    -1.0961438    -0.2368343
H          -0.2215724    -1.0200407    -1.1975098
H           1.0509743    -1.8942011    -0.3381151
C          -1.6709965    -0.2513402     1.0754007
H          -2.3065384    -0.4216334     1.9546112
H          -2.3267849    -0.1642760     0.2043181
C          -0.6965723    -1.4208475     0.8804250
H          -0.1443052    -1.6049327     1.8147716
H          -1.2437865    -2.3437769     0.6528376
C          -0.4106018     1.8883139    -0.9812846
C           1.5730431     4.9905326    -3.2169228
H           2.0480547     5.7765910    -3.7983953
C           2.0038385     4.7336451    -1.9177246
H           2.8089093     5.3327616    -1.4993740
C           1.4355947     3.7287719    -1.1181648
C           1.9930046     3.5648780     0.2805423
H           2.6937074     4.3789485     0.4944064
H           2.5344915     2.6208920     0.4016230
H           1.2083310     3.5712086     1.0402776
C           0.3727071     2.9714529    -1.6757210
C          -0.0573418     3.2468844    -2.9877902
H          -0.8804113     2.6583766    -3.3784626
C           0.5299544     4.2401502    -3.7598451
H           0.1783098     4.4282660    -4.7704103
O          -1.5365196     1.6043919    -1.3717171
32
459_C13H17NO_0-3-16-26 (-75,) energy =    -635.6097023
C           1.0006189     0.3386477     0.0228022
H           1.6232226     0.2006843     0.9181877
H           1.6626797     0.6723427    -0.7837291
N           0.0365348     1.4238265     0.3098237
C          -0.9338502     1.0093077     1.3484142
H          -1.6590734     1.8173318     1.4679924
H          -0.3592902     0.9304336     2.2824150
C           0.3251717    -0.9906207    -0.3442891
H          -0.2194805    -0.8713909    -1.2905628
H           1.1023758    -1.7473524    -0.5133105
C          -1.6500839    -0.3205291     1.0675974
H          -2.2678713    -0.5859331     1.9354307
H          -2.3228949    -0.1779484     0.2160447
C          -0.6413964    -1.4359969     0.7613669
H          -0.0647127    -1.6737724     1.6682403
H          -1.1612021    -2.3568895     0.4701812
C          -0.5403073     2.0396168    -0.8172935
C           1.6780667     4.7889630    -3.2803666
H           2.2139211     5.4879149    -3.9174145
C           2.0712245     4.6197624    -1.9547404
H           2.9051336     5.2021337    -1.5701213
C           1.4238854     3.7265896    -1.0863866
C           1.9254337     3.6497535     0.3406048
H           2.6193548     4.4746396     0.5333065
H           2.4603844     2.7150713     0.5416378
H           1.1109695     3.7053922     1.0667229
C           0.3244849     2.9951260    -1.5997669
C          -0.0766458     3.1900822    -2.9333267
H          -0.9396119     2.6349275    -3.2862695
C           0.5909197     4.0694306    -3.7767995
H           0.2649871     4.1960377    -4.8054431
O          -1.7400555     1.9662651    -1.0613163
32
459_C13H17NO_0-3-16-26 (-60,) energy =    -635.6156386
C           0.9885472     0.4572764     0.0048617
H           1.6240030     0.2935344     0.8865181
H           1.6241995     0.8684614    -0.7846485
N          -0.0286900     1.4654130     0.3616644
C          -0.9646852     0.9637673     1.3871514
H          -1.7086637     1.7410241     1.5686908
H          -0.3761593     0.8284796     2.3055374
C           0.3654208    -0.8751316    -0.4390796
H          -0.1736691    -0.7205113    -1.3838189
H           1.1697425    -1.5939469    -0.6427547
C          -1.6421141    -0.3589803     1.0010693
H          -2.2633693    -0.7068121     1.8363915
H          -2.3105535    -0.1693908     0.1538509
C          -0.5967612    -1.4193834     0.6263186
H          -0.0210031    -1.7000570     1.5213370
H          -1.0852552    -2.3341163     0.2690346
C          -0.6161735     2.1933781    -0.6751758
C           1.7458764     4.6099221    -3.3437704
H           2.3192740     5.2269484    -4.0307522
C           2.1270523     4.5241423    -2.0061980
H           2.9890041     5.0905938    -1.6613387
C           1.4279385     3.7368758    -1.0785988
C           1.9023739     3.7364845     0.3595207
H           2.5957249     4.5678380     0.5234533
H           2.4306735     2.8120828     0.6201675
H           1.0741577     3.8348182     1.0658754
C           0.2953673     3.0266548    -1.5415385
C          -0.0999296     3.1441558    -2.8840471
H          -0.9961802     2.6188158    -3.1988899
C           0.6197467     3.9170316    -3.7885146
H           0.3013934     3.9851454    -4.8250340
O          -1.8337533     2.2884214    -0.8009866
32
459_C13H17NO_0-3-16-26 (-45,) energy =    -635.6194560
C           0.9722603     0.5302410     0.0076765
H           1.6091606     0.3490004     0.8850201
H           1.5935847     0.9972642    -0.7596062
N          -0.0878559     1.4709848     0.4022331
C          -1.0014875     0.9096524     1.4106391
H          -1.7605401     1.6612355     1.6288944
H          -0.4083691     0.7362823     2.3195863
C           0.3944626    -0.8015836    -0.4982859
H          -0.1356847    -0.6202096    -1.4434361
H           1.2202091    -1.4897695    -0.7206358
C          -1.6440960    -0.4041836     0.9448348
H          -2.2698232    -0.8121797     1.7487573
H          -2.3061310    -0.1832846     0.0986858
C          -0.5684357    -1.4184418     0.5273461
H           0.0019179    -1.7312743     1.4149549
H          -1.0310408    -2.3247024     0.1177579
C          -0.6537803     2.3249483    -0.5328492
C           1.7800415     4.4541949    -3.3753590
H           2.3733604     5.0012500    -4.1034058
C           2.1636569     4.4432087    -2.0351824
H           3.0479005     4.9973407    -1.7285584
C           1.4350752     3.7466722    -1.0602168
C           1.8973168     3.8082954     0.3801466
H           2.6116202     4.6273107     0.5119383
H           2.3968606     2.8837596     0.6933615
H           1.0644740     3.9677341     1.0709417
C           0.2774820     3.0503417    -1.4739810
C          -0.1238475     3.0964822    -2.8171123
H          -1.0433906     2.5918371    -3.0980424
C           0.6251153     3.7792389    -3.7708485
H           0.3048133     3.7936895    -4.8089230
O          -1.8566351     2.5750098    -0.5481303
32
459_C13H17NO_0-3-16-26 (-30,) energy =    -635.6212236
C           0.9380534     0.5656416    -0.0160384
H           1.5877320     0.4002201     0.8558620
H           1.5347291     1.0597352    -0.7844070
N          -0.1563295     1.4537652     0.3883667
C          -1.0479583     0.8709494     1.3988157
H          -1.8290862     1.6010358     1.6100385
H          -0.4558381     0.7129303     2.3117900
C           0.4045922    -0.7834963    -0.5261904
H          -0.1345585    -0.6142242    -1.4683444
H           1.2514669    -1.4435550    -0.7537880
C          -1.6435548    -0.4620067     0.9247476
H          -2.2541770    -0.8967518     1.7261707
H          -2.3144229    -0.2624260     0.0791657
C          -0.5336207    -1.4358833     0.5003748
H           0.0496604    -1.7286812     1.3864370
H          -0.9643842    -2.3578515     0.0912814
C          -0.6669657     2.4418892    -0.4282277
C           1.7922882     4.3655977    -3.3929590
H           2.3939276     4.8647593    -4.1480246
C           2.1859485     4.4026640    -2.0556769
H           3.0871456     4.9445872    -1.7777245
C           1.4431624     3.7685974    -1.0503808
C           1.9023521     3.8635096     0.3885916
H           2.6450053     4.6597818     0.5002724
H           2.3658036     2.9317912     0.7357472
H           1.0707981     4.0786369     1.0669963
C           0.2672967     3.0852834    -1.4267051
C          -0.1442642     3.0821806    -2.7659986
H          -1.0781701     2.5906148    -3.0229712
C           0.6177594     3.7042807    -3.7519175
H           0.2909591     3.6834398    -4.7878935
O          -1.8251730     2.8416738    -0.3298343
32
459_C13H17NO_0-3-16-26 (-15,) energy =    -635.6218504
C           0.8846467     0.5601420    -0.0810799
H           1.5568331     0.4109756     0.7779717
H           1.4544197     1.0635702    -0.8631141
N          -0.2206206     1.4220613     0.3378391
C          -1.0935121     0.8417227     1.3623479
H          -1.8849672     1.5640936     1.5618495
H          -0.5018443     0.7070959     2.2804176
C           0.3700562    -0.8029072    -0.5712007
H          -0.1892799    -0.6527329    -1.5046121
H           1.2257840    -1.4481502    -0.8072225
C          -1.6617005    -0.5096654     0.9072772
H          -2.2526503    -0.9491239     1.7206597
H          -2.3469863    -0.3381654     0.0665706
C          -0.5363601    -1.4635256     0.4783629
H           0.0671385    -1.7307936     1.3588380
H          -0.9524866    -2.4002173     0.0881209
C          -0.6377613     2.5476651    -0.3332283
C           1.8245461     4.3091942    -3.3949454
H           2.4303461     4.7719803    -4.1695224
C           2.2139478     4.4054709    -2.0586991
H           3.1177357     4.9530583    -1.8008353
C           1.4614928     3.8210592    -1.0321503
C           1.9022246     3.9561628     0.4085429
H           2.6753203     4.7245182     0.5068025
H           2.3183279     3.0187857     0.7994726
H           1.0656732     4.2330917     1.0590382
C           0.2870305     3.1248418    -1.3821359
C          -0.1170179     3.0538894    -2.7202609
H          -1.0462249     2.5462303    -2.9646356
C           0.6517236     3.6324722    -3.7290347
H           0.3309829     3.5638450    -4.7648941
O          -1.7094399     3.0999193    -0.0933986
32
459_C13H17NO_0-3-16-26 (0,) energy =    -635.6226561
C           0.8339392     0.2964498    -0.2911467
H           1.5582504    -0.0185872     0.4770680
H           1.3926007     0.8002807    -1.0794874
N          -0.1021932     1.2399951     0.3198774
C          -0.9159414     0.6762724     1.4002136
H          -1.5749257     1.4673298     1.7577666
H          -0.2476568     0.3845402     2.2253091
C           0.0985522    -0.9404736    -0.8280476
H          -0.5367629    -0.6386318    -1.6718997
H           0.8326400    -1.6578321    -1.2161160
C          -1.6999700    -0.5486079     0.9094431
H          -2.2468510    -0.9912592     1.7513422
H          -2.4482177    -0.2185297     0.1764614
C          -0.7644425    -1.5849773     0.2677037
H          -0.1061068    -2.0065461     1.0419902
H          -1.3411394    -2.4227319    -0.1426757
C          -0.3025141     2.5453745    -0.0589469
C           1.8416147     4.2265176    -3.3941197
H           2.3673221     4.6752979    -4.2328104
C           2.1239982     4.6443980    -2.0923961
H           2.8699883     5.4186212    -1.9282383
C           1.4636896     4.0976028    -0.9864260
C           1.7641350     4.5911347     0.4098928
H           2.5597338     5.3421857     0.3971590
H           2.0835175     3.7733205     1.0679048
H           0.8712541     5.0317887     0.8645825
C           0.5084871     3.0861314    -1.2154946
C           0.2229529     2.6721498    -2.5218233
H          -0.5309467     1.9055385    -2.6845985
C           0.8828474     3.2389768    -3.6127923
H           0.6474464     2.9116510    -4.6218092
O          -1.1001680     3.2815425     0.5204281
32
459_C13H17NO_0-3-16-26 (15,) energy =    -635.6231009
C           0.7955555     0.2853753    -0.2985579
H           1.5116164     0.0122356     0.4945126
H           1.3584535     0.7811033    -1.0888573
N          -0.1845078     1.2183392     0.2597043
C          -1.0042623     0.6619491     1.3397617
H          -1.6936233     1.4423358     1.6616675
H          -0.3527912     0.4144884     2.1935387
C           0.1097394    -0.9860964    -0.8165778
H          -0.5134338    -0.7272953    -1.6833905
H           0.8742620    -1.6911166    -1.1663559
C          -1.7388411    -0.5980198     0.8644502
H          -2.2945571    -1.0308565     1.7055884
H          -2.4769545    -0.3115018     0.1033820
C          -0.7599694    -1.6255237     0.2764159
H          -0.1089560    -2.0056351     1.0777414
H          -1.3030740    -2.4904298    -0.1232573
C          -0.2455785     2.5689487     0.0059952
C           1.8037582     4.2328490    -3.3960773
H           2.3047273     4.6764169    -4.2525126
C           2.1174564     4.6662687    -2.1067080
H           2.8631134     5.4460983    -1.9700746
C           1.4894038     4.1293460    -0.9772238
C           1.8317293     4.6426167     0.4025262
H           2.6224448     5.3973115     0.3517937
H           2.1786558     3.8360041     1.0603749
H           0.9521409     5.0825340     0.8815067
C           0.5355379     3.1079459    -1.1700225
C           0.2210237     2.6770402    -2.4649296
H          -0.5312936     1.9034995    -2.5981987
C           0.8462810     3.2368775    -3.5791340
H           0.5858804     2.8972859    -4.5778830
O          -0.9403477     3.3293395     0.6791124
32
459_C13H17NO_0-3-16-26 (30,) energy =    -635.6229564
C           0.7669667     0.2753063    -0.3152940
H           1.4524693     0.0345090     0.5153181
H           1.3555355     0.7614879    -1.0931713
N          -0.2572130     1.2055240     0.1724231
C          -1.0998009     0.6559375     1.2399546
H          -1.8176227     1.4257417     1.5232078
H          -0.4786661     0.4435812     2.1260843
C           0.1273811    -1.0192201    -0.8312589
H          -0.4658910    -0.7914534    -1.7271566
H           0.9184798    -1.7162629    -1.1346409
C          -1.7904115    -0.6283577     0.7662044
H          -2.3706715    -1.0515992     1.5954607
H          -2.5029681    -0.3741166    -0.0298611
C          -0.7719656    -1.6511415     0.2413843
H          -0.1458118    -1.9999329     1.0760217
H          -1.2835389    -2.5351876    -0.1580108
C          -0.1747765     2.5786845     0.0544287
C           1.7940022     4.2865254    -3.3715676
H           2.2748444     4.7397257    -4.2345085
C           2.1250928     4.7180514    -2.0861673
H           2.8651230     5.5049083    -1.9597533
C           1.5234124     4.1702217    -0.9472150
C           1.8863846     4.6925695     0.4240156
H           2.7434905     5.3705704     0.3645311
H           2.1415032     3.8822923     1.1164452
H           1.0433089     5.2279176     0.8709057
C           0.5790970     3.1369236    -1.1279561
C           0.2489825     2.7065557    -2.4201483
H          -0.4958294     1.9243741    -2.5410852
C           0.8460257     3.2791374    -3.5425666
H           0.5721619     2.9407295    -4.5381067
O          -0.7626643     3.3347365     0.8255095
32
459_C13H17NO_0-3-16-26 (45,) energy =    -635.6218766
C           0.7591881     0.2517038    -0.2997921
H           1.4111534     0.0596492     0.5700779
H           1.3734624     0.7152947    -1.0728290
N          -0.3054036     1.1875193     0.0960759
C          -1.1717408     0.6599806     1.1591583
H          -1.9187124     1.4203816     1.3889423
H          -0.5834878     0.4987965     2.0781973
C           0.1657968    -1.0731293    -0.7892824
H          -0.3945710    -0.8914911    -1.7162785
H           0.9814692    -1.7651036    -1.0332895
C          -1.8193364    -0.6544000     0.7104355
H          -2.4273138    -1.0530189     1.5319454
H          -2.5017214    -0.4458676    -0.1244286
C          -0.7646998    -1.6799105     0.2705166
H          -0.1676483    -1.9836308     1.1430995
H          -1.2453071    -2.5879316    -0.1132232
C          -0.0931566     2.5602172     0.0965280
C           1.7326920     4.3171796    -3.3827163
H           2.1781984     4.7796171    -4.2596647
C           2.1001857     4.7490743    -2.1075861
H           2.8339968     5.5449582    -2.0036688
C           1.5448531     4.1903402    -0.9502785
C           1.9559125     4.7167014     0.4059078
H           2.8193056     5.3831200     0.3132046
H           2.2199656     3.9090559     1.0971619
H           1.1350381     5.2667797     0.8753525
C           0.6074611     3.1446829    -1.1032053
C           0.2427748     2.7127316    -2.3864669
H          -0.4952329     1.9215345    -2.4825795
C           0.7938735     3.2968173    -3.5256491
H           0.4916946     2.9576447    -4.5126789
O          -0.5658910     3.2887733     0.9649040
32
459_C13H17NO_0-3-16-26 (60,) energy =    -635.6193457
C           0.7799400     0.1997882    -0.2619251
H           1.3745038     0.0354128     0.6536675
H           1.4450939     0.6345397    -1.0115662
N          -0.3039210     1.1598449     0.0269277
C          -1.2165776     0.6608464     1.0691765
H          -1.9725324     1.4270969     1.2493035
H          -0.6739423     0.5201557     2.0188382
C           0.2097427    -1.1357574    -0.7470779
H          -0.2910364    -0.9788406    -1.7118151
H           1.0346184    -1.8382757    -0.9197294
C          -1.8533878    -0.6582112     0.6210485
H          -2.5111989    -1.0273060     1.4175901
H          -2.4851591    -0.4666189    -0.2566088
C          -0.7874170    -1.7059153     0.2710865
H          -0.2459903    -1.9912887     1.1850528
H          -1.2547965    -2.6193582    -0.1161494
C           0.0303402     2.5147448     0.1372875
C           1.6549396     4.3744541    -3.3870403
H           2.0516313     4.8593269    -4.2753112
C           2.0546589     4.8083261    -2.1225059
H           2.7654514     5.6270858    -2.0387247
C           1.5635375     4.2217352    -0.9499389
C           2.0179377     4.7531268     0.3903701
H           2.8718474     5.4263882     0.2635965
H           2.3103543     3.9500392     1.0744113
H           1.2113276     5.2990055     0.8886728
C           0.6530923     3.1468740    -1.0779012
C           0.2583700     2.7120387    -2.3522901
H          -0.4559301     1.8981320    -2.4260247
C           0.7473090     3.3231698    -3.5048950
H           0.4209282     2.9815094    -4.4833011
O          -0.3133376     3.1878991     1.1031259
32
459_C13H17NO_0-3-16-26 (75,) energy =    -635.6150449
C           0.8098759     0.1365486    -0.2024410
H           1.3289490     0.0038161     0.7630398
H           1.5413901     0.5220138    -0.9191289
N          -0.2715275     1.1360951    -0.0492287
C          -1.2477970     0.6929759     0.9653055
H          -1.9958766     1.4806278     1.0820841
H          -0.7611155     0.5690819     1.9464896
C           0.2453503    -1.2056980    -0.6743477
H          -0.1779350    -1.0775146    -1.6794512
H           1.0632324    -1.9325319    -0.7561665
C          -1.8950467    -0.6226267     0.5234800
H          -2.6149961    -0.9426646     1.2868504
H          -2.4603922    -0.4480947    -0.4016920
C          -0.8388820    -1.7114121     0.2871177
H          -0.3738288    -1.9787363     1.2472871
H          -1.3042152    -2.6248970    -0.1026429
C           0.1740485     2.4648286     0.1441693
C           1.5601276     4.4633704    -3.4041751
H           1.8991713     4.9802428    -4.2982979
C           1.9921372     4.8934024    -2.1491787
H           2.6703419     5.7405902    -2.0796704
C           1.5773806     4.2668787    -0.9678082
C           2.0765997     4.7965123     0.3568782
H           2.8920134     5.5093261     0.1964265
H           2.4374646     3.9968988     1.0109864
H           1.2753556     5.2985682     0.9073286
C           0.7040437     3.1568334    -1.0779157
C           0.2797402     2.7255429    -2.3451231
H          -0.4018288     1.8837644    -2.4009491
C           0.6955264     3.3746232    -3.5049337
H           0.3456896     3.0339199    -4.4755166
O          -0.0252318     3.0631370     1.1937625
32
459_C13H17NO_0-3-16-26 (90,) energy =    -635.6097752
C           0.8404027     0.0315166    -0.1235623
H           1.2821838    -0.0605244     0.8846315
H           1.6381299     0.3496538    -0.8041275
N          -0.2126628     1.0747499    -0.1185110
C          -1.2699758     0.7166379     0.8524651
H          -1.9959464     1.5345876     0.8788477
H          -0.8564793     0.6205176     1.8689243
C           0.2634370    -1.3152173    -0.5670174
H          -0.0736499    -1.2284094    -1.6083196
H           1.0566385    -2.0731665    -0.5437071
C          -1.9387869    -0.5927065     0.4260071
H          -2.7274713    -0.8457937     1.1455041
H          -2.4235106    -0.4454990    -0.5482995
C          -0.9119440    -1.7297953     0.3286623
H          -0.5342294    -1.9616035     1.3351996
H          -1.3813455    -2.6456613    -0.0505511
C           0.3317985     2.3746039     0.1372333
C           1.4360746     4.5664141    -3.3924651
H           1.7062125     5.1288566    -4.2826260
C           1.9027172     4.9791386    -2.1441417
H           2.5386079     5.8585961    -2.0767024
C           1.5782755     4.2947619    -0.9666609
C           2.1214453     4.8105426     0.3455563
H           2.8628257     5.5954397     0.1633459
H           2.5893794     4.0178650     0.9370425
H           1.3233557     5.2202131     0.9718710
C           0.7544067     3.1442904    -1.0749368
C           0.2965386     2.7314734    -2.3378355
H          -0.3394616     1.8552890    -2.3878847
C           0.6263037     3.4361490    -3.4920008
H           0.2526539     3.1067191    -4.4575367
O           0.3091191     2.8688381     1.2551261
32
459_C13H17NO_0-3-16-26 (105,) energy =    -635.6054620
C           0.8994274    -0.0378495    -0.0233873
H           1.2675529    -0.0851998     1.0170168
H           1.7597240     0.1874933    -0.6650958
N          -0.0868442     1.0573415    -0.1704142
C          -1.2382535     0.8283653     0.7315518
H          -1.9179420     1.6820491     0.6355362
H          -0.9148556     0.7849560     1.7841240
C           0.2744907    -1.3767015    -0.4236303
H           0.0187699    -1.3419653    -1.4907977
H           1.0154476    -2.1753304    -0.2918643
C          -1.9501063    -0.4697466     0.3429967
H          -2.8041073    -0.6282729     1.0134375
H          -2.3498122    -0.3670002    -0.6745769
C          -0.9862083    -1.6630046     0.4037305
H          -0.6987345    -1.8416338     1.4500761
H          -1.4789688    -2.5774064     0.0512577
C           0.5430509     2.3326212     0.1063870
C           1.3084659     4.7122854    -3.3858969
H           1.4976721     5.3182138    -4.2684263
C           1.8089420     5.1173107    -2.1482395
H           2.3872437     6.0356725    -2.0824768
C           1.5916515     4.3775049    -0.9797159
C           2.1702319     4.8910591     0.3173257
H           2.7844110     5.7777357     0.1288386
H           2.7857208     4.1368990     0.8170843
H           1.3836583     5.1529343     1.0313109
C           0.8370988     3.1777729    -1.0872057
C           0.3423285     2.7764248    -2.3409686
H          -0.2325684     1.8591601    -2.3857586
C           0.5692966     3.5344582    -3.4852056
H           0.1723241     3.2095563    -4.4428817
O           0.7399680     2.7025549     1.2529714
32
459_C13H17NO_0-3-16-26 (120,) energy =    -635.6055198
C           0.9892535    -0.4326797     0.6041786
H           0.8810160    -0.8780678     1.6063849
H           2.0552904    -0.4489374     0.3671208
N           0.5716375     0.9733918     0.6451450
C          -0.8699025     1.2245150     0.7494355
H          -1.0446253     2.2892650     0.5708220
H          -1.1639153     1.0246341     1.7923000
C           0.1658377    -1.2625071    -0.3892874
H           0.3947044    -0.9500767    -1.4173222
H           0.4720930    -2.3127361    -0.3020915
C          -1.7425964     0.3681069    -0.1815827
H          -2.7943979     0.4950922     0.1044780
H          -1.6476932     0.7328412    -1.2112645
C          -1.3373127    -1.1108123    -0.1195148
H          -1.5664264    -1.5139808     0.8782379
H          -1.9212505    -1.6989953    -0.8376958
C           1.4505457     1.9604239     0.2009190
C           0.5387290     4.4212571    -3.2150011
H           0.3430464     5.0407636    -4.0862400
C           1.0460619     5.0031218    -2.0514116
H           1.2394477     6.0730362    -2.0244972
C           1.3225336     4.2408658    -0.9121437
C           1.9039223     4.9041483     0.3153250
H           1.9178461     5.9920972     0.1977766
H           2.9250539     4.5558790     0.4965711
H           1.3282750     4.6683546     1.2180647
C           1.0485985     2.8545597    -0.9505960
C           0.5347850     2.2781639    -2.1181600
H           0.3525979     1.2095488    -2.1487495
C           0.2904551     3.0511408    -3.2537106
H          -0.0928551     2.5838110    -4.1566611
O           2.6160366     1.9764536     0.5831344
32
459_C13H17NO_0-3-16-26 (135,) energy =    -635.6134417
C           0.9677569    -0.4080206     0.6942063
H           0.8211498    -0.7083000     1.7442812
H           2.0411197    -0.4409791     0.5004735
N           0.5343429     0.9800516     0.5088622
C          -0.9065886     1.2302758     0.5761098
H          -1.0917891     2.2653842     0.2792530
H          -1.2137143     1.1367427     1.6303901
C           0.1853165    -1.3646422    -0.2143951
H           0.4499930    -1.1703742    -1.2630690
H           0.4940496    -2.3937179     0.0086177
C          -1.7422397     0.2591233    -0.2712857
H          -2.8039004     0.4075191    -0.0365054
H          -1.6150053     0.4993906    -1.3341059
C          -1.3278818    -1.1973016    -0.0194222
H          -1.5919536    -1.4807888     1.0104002
H          -1.8816521    -1.8726287    -0.6826739
C           1.4510956     1.9241413     0.0777672
C           0.4955237     4.5791130    -3.1760677
H           0.2864438     5.2446494    -4.0094950
C           1.0539601     5.0878142    -2.0017749
H           1.2739783     6.1505374    -1.9311321
C           1.3478815     4.2630778    -0.9108780
C           1.9841747     4.8452505     0.3303354
H           2.0249060     5.9371947     0.2698652
H           3.0001533     4.4607668     0.4609298
H           1.4295361     4.5765650     1.2370654
C           1.0392088     2.8883096    -1.0109801
C           0.4764995     2.3833831    -2.1894859
H           0.2697789     1.3204438    -2.2644224
C           0.2125978     3.2185403    -3.2753108
H          -0.2113672     2.8071776    -4.1872926
O           2.6298525     1.8707290     0.4202689
32
459_C13H17NO_0-3-16-26 (150,) energy =    -635.6193055
C           0.9506626    -0.3649512     0.7674494
H           0.7614203    -0.4981560     1.8448465
H           2.0302021    -0.4144143     0.6200906
N           0.5143102     0.9697145     0.3510855
C          -0.9279902     1.2114874     0.3957577
H          -1.1308867     2.2059355    -0.0056483
H          -1.2404677     1.2162522     1.4529937
C           0.2060168    -1.4508697    -0.0195919
H           0.5091396    -1.4013583    -1.0744238
H           0.5096890    -2.4359031     0.3563892
C          -1.7276618     0.1370555    -0.3550575
H          -2.7984578     0.3020082    -0.1813481
H          -1.5574169     0.2463269    -1.4340450
C          -1.3148550    -1.2727951     0.0923533
H          -1.6210176    -1.4268592     1.1378110
H          -1.8375563    -2.0313883    -0.5026977
C           1.4536918     1.8880473    -0.0688069
C           0.4600002     4.7470670    -3.1316697
H           0.2393606     5.4660761    -3.9163000
C           1.0636541     5.1738456    -1.9473474
H           1.3069136     6.2260720    -1.8192421
C           1.3736792     4.2794260    -0.9170572
C           2.0588238     4.7740374     0.3360168
H           2.1157252     5.8669607     0.3412391
H           3.0718168     4.3671542     0.4093531
H           1.5292429     4.4577457     1.2423058
C           1.0352985     2.9196857    -1.0907167
C           0.4285970     2.4961183    -2.2797473
H           0.1960643     1.4431774    -2.4092701
C           0.1465717     3.4003170    -3.3036576
H          -0.3140689     3.0534121    -4.2245857
O           2.6372505     1.7947328     0.2517820
32
459_C13H17NO_0-3-16-26 (165,) energy =    -635.6225143
C           0.9518402    -0.3116324     0.7924719
H           0.7331079    -0.2727891     1.8718968
H           2.0336295    -0.3839658     0.6787653
N           0.5284092     0.9428621     0.1650977
C          -0.9136183     1.1903144     0.1940183
H          -1.1262141     2.1343192    -0.3082639
H          -1.2259930     1.3000858     1.2459739
C           0.2219220    -1.5029180     0.1585914
H           0.5564707    -1.6116731    -0.8819254
H           0.5075691    -2.4213119     0.6864893
C          -1.6942613     0.0320426    -0.4417415
H          -2.7698057     0.2162839    -0.3268171
H          -1.4840743     0.0063799    -1.5194698
C          -1.3011323    -1.3089228     0.1958408
H          -1.6425827    -1.3244351     1.2416431
H          -1.8081803    -2.1383749    -0.3117512
C           1.4861778     1.8408878    -0.2489568
C           0.4557318     4.9274422    -3.0691506
H           0.2235282     5.7064099    -3.7906297
C           1.0822719     5.2588685    -1.8664872
H           1.3320710     6.2973024    -1.6614730
C           1.4082637     4.2865364    -0.9143109
C           2.1145452     4.6806686     0.3625102
H           2.2063593     5.7687550     0.4349096
H           3.1135011     4.2370284     0.4055718
H           1.5767465     4.3270956     1.2504066
C           1.0620892     2.9458268    -1.1878058
C           0.4339081     2.6172792    -2.3959355
H           0.1936089     1.5774038    -2.6009164
C           0.1344499     3.5988196    -3.3404295
H          -0.3446598     3.3257832    -4.2766749
O           2.6731137     1.7095265     0.0472432
32
459_C13H17NO_0-3-16-26 (180,) energy =    -635.6230101
C           0.8344453    -0.8557824     0.1348421
H           1.2559935    -0.8048000     1.1522693
H           1.6221868    -1.2027826    -0.5336219
N           0.4554805     0.4941443    -0.2934021
C          -0.6022711     1.1027839     0.5175294
H          -0.8153640     2.1037119     0.1440813
H          -0.2380420     1.2074371     1.5535258
C          -0.3842992    -1.7865088     0.1227313
H          -0.7120669    -1.9267653    -0.9159646
H          -0.0899384    -2.7722338     0.5039174
C          -1.8623351     0.2274400     0.5125026
H          -2.6160527     0.6761739     1.1715089
H          -2.2834203     0.2161443    -0.5019898
C          -1.5373282    -1.2068606     0.9560652
H          -1.2492613    -1.1990084     2.0177731
H          -2.4271583    -1.8430897     0.8769805
C           1.2888614     1.1713112    -1.1549389
C           0.2042921     5.0823536    -2.5928859
H          -0.0506900     6.0666678    -2.9767870
C           1.3874732     4.9012261    -1.8746154
H           2.0454537     5.7500970    -1.7036827
C           1.7582218     3.6488707    -1.3716642
C           3.0629756     3.4826061    -0.6271237
H           3.5625877     4.4475808    -0.4980289
H           3.7330836     2.8065207    -1.1663639
H           2.9105767     3.0466281     0.3678520
C           0.8857072     2.5618454    -1.5879838
C          -0.2995081     2.7455281    -2.3113716
H          -0.9514890     1.8932943    -2.4865014
C          -0.6425697     3.9988040    -2.8186790
H          -1.5615011     4.1246583    -3.3846553
O           2.3188224     0.6664973    -1.5994612
