16
070_C7H5N3O_4-5-12-13 (-165,) energy =    -509.2040208
C           5.4417984     1.3619498     1.4939591
H           6.1393926     2.1155126     1.8436761
C           5.8500263     0.2940034     0.6947745
H           6.8899883     0.1820508     0.3918393
N           5.0045093    -0.6383328     0.2522224
C           3.7247640    -0.4980916     0.6323026
N           3.2171778     0.4855097     1.3927636
C           4.0863377     1.4077525     1.8139641
H           3.6782770     2.2076220     2.4299499
C           1.8070815    -3.2190039    -0.6686653
H           1.7023226    -4.1932805    -1.1246146
N           3.0460967    -2.6754676    -0.3907103
C           2.7815991    -1.5189601     0.1504607
O           1.4479450    -1.2490271     0.2468102
C           0.8380571    -2.3463455    -0.2808744
H          -0.2401087    -2.3362310    -0.3032615
16
070_C7H5N3O_4-5-12-13 (-150,) energy =    -509.2027953
C           5.4428091     1.3648667     1.4868942
H           6.1402090     2.1234763     1.8260459
C           5.8289587     0.3465454     0.6159266
H           6.8494048     0.2810988     0.2416598
N           4.9816488    -0.5899329     0.1830411
C           3.7278990    -0.5084983     0.6539212
N           3.2411286     0.4271708     1.4848011
C           4.1091605     1.3575375     1.8910668
H           3.7188336     2.1188874     2.5645852
C           1.7973516    -3.2532897    -0.5797043
H           1.6832723    -4.2635354    -0.9462873
N           3.0309319    -2.7470464    -0.2137186
C           2.7792889    -1.5314992     0.1810097
O           1.4640199    -1.1826274     0.0912776
C           0.8483541    -2.2968682    -0.3962341
H          -0.2172449    -2.2324368    -0.5487691
16
070_C7H5N3O_4-5-12-13 (-135,) energy =    -509.2008601
C           5.4451283     1.3648378     1.4825452
H           6.1433075     2.1275081     1.8109829
C           5.8006854     0.3979002     0.5435436
H           6.7954808     0.3790553     0.1013977
N           4.9502414    -0.5427840     0.1226565
C           3.7302019    -0.5193581     0.6782085
N           3.2721950     0.3672419     1.5757111
C           4.1404247     1.3039004     1.9684120
H           3.7743867     2.0253128     2.6971517
C           1.7722485    -3.2809498    -0.4827897
H           1.6354918    -4.3174289    -0.7564566
N           2.9893921    -2.8029114    -0.0265269
C           2.7721294    -1.5434956     0.2145518
O           1.5021980    -1.1352109    -0.0663052
C           0.8730666    -2.2628193    -0.5096999
H          -0.1619454    -2.1582585    -0.7935097
16
070_C7H5N3O_4-5-12-13 (-120,) energy =    -509.1985710
C           5.4431849     1.3685615     1.4810676
H           6.1426498     2.1324230     1.8041965
C           5.7602534     0.4609913     0.4723247
H           6.7240906     0.4918793    -0.0329583
N           4.9064002    -0.4816534     0.0595526
C           3.7261731    -0.5188808     0.6924835
N           3.3048061     0.3096403     1.6591626
C           4.1744750     1.2487893     2.0447524
H           3.8390311     1.9230942     2.8309186
C           1.7374213    -3.2995939    -0.3821986
H           1.5688822    -4.3528341    -0.5553886
N           2.9249130    -2.8320036     0.1622698
C           2.7599206    -1.5464179     0.2362277
O           1.5595769    -1.1089219    -0.2378044
C           0.9135770    -2.2493672    -0.6277854
H          -0.0744423    -2.1265162    -1.0416479
16
070_C7H5N3O_4-5-12-13 (-105,) energy =    -509.1966082
C           5.4486229     1.3636645     1.4846486
H           6.1530483     2.1217225     1.8108083
C           5.7176683     0.5279607     0.4029013
H           6.6466339     0.6109859    -0.1585387
N           4.8574261    -0.4093361    -0.0108390
C           3.7200287    -0.5089208     0.6886355
N           3.3467227     0.2467699     1.7300387
C           4.2222420     1.1797816     2.1196710
H           3.9258258     1.7955986     2.9670211
C           1.6870169    -3.3068511    -0.2699353
H           1.4704438    -4.3639575    -0.3266590
N           2.8338584    -2.8307164     0.3543608
C           2.7496113    -1.5424438     0.2372617
O           1.6436158    -1.1103720    -0.4294065
C           0.9695629    -2.2597086    -0.7465268
H           0.0446905    -2.1420066    -1.2879624
16
070_C7H5N3O_4-5-12-13 (-90,) energy =    -509.1958228
C           5.4513155     1.3563945     1.4922382
H           6.1622657     2.1041991     1.8278187
C           5.6659340     0.6055469     0.3385469
H           6.5571038     0.7459564    -0.2706711
N           4.7989399    -0.3214917    -0.0843702
C           3.7064085    -0.4895862     0.6712400
N           3.3900022     0.1774982     1.7880895
C           4.2731783     1.0988338     2.1896134
H           4.0224671     1.6437289     3.0980578
C           1.6195943    -3.2927665    -0.1534488
H           1.3389451    -4.3341231    -0.0873950
N           2.7163190    -2.7886718     0.5375206
C           2.7411250    -1.5322765     0.2223361
O           1.7508081    -1.1453217    -0.6276454
C           1.0373329    -2.2924639    -0.8585908
H           0.1895461    -2.2071438    -1.5190943
16
070_C7H5N3O_4-5-12-13 (-75,) energy =    -509.1966128
C           5.4494396     1.3498555     1.4966552
H           6.1644348     2.0910866     1.8381734
C           5.6038194     0.6841108     0.2825474
H           6.4525122     0.8861061    -0.3686015
N           4.7330275    -0.2364388    -0.1454528
C           3.6900422    -0.4763316     0.6604336
N           3.4376374     0.0992442     1.8426928
C           4.3270709     1.0119114     2.2495678
H           4.1275041     1.4837584     3.2100740
C           1.5401027    -3.2589539    -0.0533368
H           1.1800199    -4.2636396     0.1157057
N           2.5759734    -2.7192106     0.6999004
C           2.7357561    -1.5274173     0.2155772
O           1.8805041    -1.2131104    -0.7963485
C           1.1190772    -2.3401021    -0.9571523
H           0.3625751    -2.3049602    -1.7245089
16
070_C7H5N3O_4-5-12-13 (-60,) energy =    -509.1985849
C           5.4485293     1.3453796     1.4989298
H           6.1683769     2.0835086     1.8367505
C           5.5373469     0.7553333     0.2396463
H           6.3378756     1.0144935    -0.4512023
N           4.6624087    -0.1618370    -0.1848943
C           3.6756326    -0.4711566     0.6690658
N           3.4914893     0.0257552     1.8994044
C           4.3870374     0.9333499     2.3021582
H           4.2427100     1.3414132     3.3011108
C           1.4596721    -3.2100546     0.0163158
H           1.0177237    -4.1672157     0.2534624
N           2.4257214    -2.6329502     0.8282202
C           2.7261656    -1.5212169     0.2290042
O           2.0191223    -1.2934231    -0.9134179
C           1.2129840    -2.3910147    -1.0373668
H           0.5577151    -2.4143321    -1.8933025
16
070_C7H5N3O_4-5-12-13 (-45,) energy =    -509.2008862
C           5.4466284     1.3445970     1.4980397
H           6.1704024     2.0821801     1.8283907
C           5.4668335     0.8219679     0.2063005
H           6.2161345     1.1356079    -0.5187154
N           4.5872726    -0.0933255    -0.2106732
C           3.6615465    -0.4693198     0.6855757
N           3.5467384    -0.0406985     1.9506488
C           4.4475652     0.8645666     2.3433597
H           4.3594547     1.2165513     3.3699051
C           1.3753967    -3.1519571     0.0673066
H           0.8503886    -4.0537958     0.3482220
N           2.2699345    -2.5333441     0.9249527
C           2.7085901    -1.5109520     0.2516109
O           2.1565619    -1.3843491    -0.9886758
C           1.3064307    -2.4473787    -1.0923090
H           0.7563227    -2.5380038    -2.0153041
16
070_C7H5N3O_4-5-12-13 (-30,) energy =    -509.2028214
C           5.4491478     1.3451479     1.4930199
H           6.1759799     2.0821283     1.8177726
C           5.4008908     0.8893983     0.1769741
H           6.0973242     1.2582267    -0.5744097
N           4.5168088    -0.0233061    -0.2346771
C           3.6559624    -0.4690316     0.6944691
N           3.6090870    -0.1061363     1.9852612
C           4.5124826     0.7984865     2.3696711
H           4.4793485     1.0958454     3.4166372
C           1.2975778    -3.0887081     0.0963541
H           0.6920407    -3.9290989     0.4046657
N           2.1235856    -2.4227394     0.9831413
C           2.6931747    -1.4976400     0.2646255
O           2.2937298    -1.4867782    -1.0393370
C           1.4015994    -2.5133193    -1.1312918
H           0.9551863    -2.6805939    -2.0985912
16
070_C7H5N3O_4-5-12-13 (-15,) energy =    -509.2040304
C           5.4496284     1.3421451     1.4935769
H           6.1782910     2.0789072     1.8145711
C           5.3336277     0.9531755     0.1605361
H           5.9759918     1.3777188    -0.6094427
N           4.4447309     0.0441381    -0.2479597
C           3.6517093    -0.4731106     0.7044172
N           3.6725153    -0.1764595     2.0133803
C           4.5761226     0.7291479     2.3919694
H           4.5972797     0.9721470     3.4532528
C           1.2171624    -3.0226143     0.1162024
H           0.5322474    -3.7941075     0.4383292
N           1.9798386    -2.3048102     1.0167515
C           2.6751893    -1.4867020     0.2768528
O           2.4226064    -1.6033454    -1.0586324
C           1.4885850    -2.5905696    -1.1449927
H           1.1429316    -2.8438601    -2.1346489
16
070_C7H5N3O_4-5-12-13 (0,) energy =    -509.2044380
C           5.4492366     1.3506986     1.4754310
H           6.1845011     2.0614631     1.8373472
C           5.4838229     0.0053826     1.8366562
H           6.2561538    -0.3808582     2.5000314
N           4.5852691    -0.8800731     1.3986992
C           3.6345302    -0.3990822     0.5811908
N           3.5020664     0.8709240     0.1664913
C           4.4143768     1.7313376     0.6207909
H           4.3100907     2.7626259     0.2869673
C           1.0152011    -2.3682591    -0.8448860
H           0.1340629    -2.5034210    -1.4559977
N           1.6240238    -1.1365892    -0.7076318
C           2.6347002    -1.3572447     0.0869100
O           2.7423495    -2.6560861     0.4900949
C           1.6996250    -3.2894989    -0.1138571
H           1.5994907    -4.3461060     0.0775708
16
070_C7H5N3O_4-5-12-13 (15,) energy =    -509.2040304
C           5.4473543     1.3528402     1.4757654
H           6.1812806     2.0648480     1.8379837
C           5.5380129    -0.0080446     1.7612904
H           6.3552490    -0.4059224     2.3609189
N           4.6446894    -0.8962637     1.3181254
C           3.6362107    -0.4002208     0.5830314
N           3.4467960     0.8850951     0.2455350
C           4.3596462     1.7472334     0.6965145
H           4.2105350     2.7910027     0.4242462
C           1.0844753    -2.3985902    -0.9230067
H           0.2701170    -2.5613146    -1.6146838
N           1.7420119    -1.1863158    -0.8459169
C           2.6492318    -1.3646237     0.0735515
O           2.6373241    -2.6131584     0.6230456
C           1.6314924    -3.2626614    -0.0257336
H           1.4493613    -4.2849944     0.2653247
16
070_C7H5N3O_4-5-12-13 (30,) energy =    -509.2028214
C           5.4473230     1.3537312     1.4787253
H           6.1787893     2.0689175     1.8397723
C           5.5935321    -0.0165891     1.6857474
H           6.4539038    -0.4187597     2.2183361
N           4.7050862    -0.9087708     1.2399193
C           3.6426625    -0.4064818     0.5903027
N           3.3979164     0.8869957     0.3313624
C           4.3093708     1.7537189     0.7788879
H           4.1159630     2.8048423     0.5705824
C           1.1593069    -2.4384237    -0.9865873
H           0.4173363    -2.6371704    -1.7468289
N           1.8754551    -1.2557861    -0.9602278
C           2.6678407    -1.3784950     0.0662093
O           2.5209022    -2.5551667     0.7398896
C           1.5526286    -3.2236086     0.0515794
H           1.2775567    -4.1966984     0.4262332
16
070_C7H5N3O_4-5-12-13 (45,) energy =    -509.2008862
C           5.4438708     1.3575670     1.4764407
H           6.1713800     2.0775830     1.8360474
C           5.6449646    -0.0157787     1.6014302
H           6.5459155    -0.4153457     2.0641437
N           4.7616317    -0.9133323     1.1549137
C           3.6497316    -0.4137540     0.5930396
N           3.3507512     0.8810268     0.4156666
C           4.2582295     1.7550099     0.8604727
H           4.0210180     2.8082143     0.7192518
C           1.2336265    -2.4852162    -1.0430419
H           0.5685159    -2.7281550    -1.8594171
N           2.0168124    -1.3429171    -1.0575102
C           2.6838221    -1.3944695     0.0576285
O           2.3889940    -2.4774729     0.8317441
C           1.4598275    -3.1688018     0.1091036
H           1.0838359    -4.0782922     0.5497954
16
070_C7H5N3O_4-5-12-13 (60,) energy =    -509.1985849
C           5.4456488     1.3589275     1.4763678
H           6.1680002     2.0852815     1.8337981
C           5.7002027    -0.0105749     1.5151410
H           6.6387641    -0.4005807     1.9053718
N           4.8225774    -0.9151077     1.0695549
C           3.6663413    -0.4274606     0.5962975
N           3.3137151     0.8618246     0.5070682
C           4.2144367     1.7450891     0.9503396
H           3.9337023     2.7946724     0.8809459
C           1.3188931    -2.5479745    -1.0862704
H           0.7368315    -2.8461862    -1.9464962
N           2.1757578    -1.4573769    -1.1295051
C           2.7040311    -1.4171191     0.0556466
O           2.2509775    -2.3838343     0.9024837
C           1.3646810    -3.1044434     0.1507319
H           0.8810773    -3.9350992     0.6392863
16
070_C7H5N3O_4-5-12-13 (75,) energy =    -509.1966128
C           5.4474579     1.3591770     1.4811314
H           6.1647314     2.0896931     1.8404937
C           5.7492130     0.0003289     1.4212739
H           6.7210689    -0.3769094     1.7347442
N           4.8759011    -0.9083692     0.9735372
C           3.6814347    -0.4358498     0.5930173
N           3.2798407     0.8413598     0.6068200
C           4.1743929     1.7299540     1.0537847
H           3.8539610     2.7702277     1.0676691
C           1.4048910    -2.6230590    -1.1123155
H           0.9100943    -2.9941898    -1.9983553
N           2.3366440    -1.5936504    -1.1745373
C           2.7151944    -1.4307159     0.0545366
O           2.1028741    -2.2589115     0.9452634
C           1.2637909    -3.0206888     0.1762553
H           0.6714334    -3.7575160     0.6944879
16
070_C7H5N3O_4-5-12-13 (90,) energy =    -509.1958228
C           5.4508362     1.3586483     1.4884851
H           6.1659937     2.0866658     1.8570180
C           5.7907211     0.0186767     1.3158841
H           6.7894130    -0.3465870     1.5487828
N           4.9194517    -0.8882556     0.8594832
C           3.6939328    -0.4309136     0.5735305
N           3.2521748     0.8256960     0.7086217
C           4.1425755     1.7130545     1.1667288
H           3.7900007     2.7370108     1.2773746
C           1.4973027    -2.7176314    -1.1112434
H           1.0950757    -3.1872108    -1.9973919
N           2.4960463    -1.7527343    -1.1876651
C           2.7186414    -1.4265370     0.0462443
O           1.9525109    -2.0939236     0.9520969
C           1.1710089    -2.9211375     0.1883629
H           0.4752996    -3.5510332     0.7189350
16
070_C7H5N3O_4-5-12-13 (105,) energy =    -509.1966082
C           5.4504248     1.3551905     1.4987601
H           6.1621013     2.0791472     1.8817100
C           5.8206546     0.0436201     1.2094912
H           6.8409954    -0.3030897     1.3637051
N           4.9531329    -0.8594413     0.7387374
C           3.7018514    -0.4234319     0.5462670
N           3.2284015     0.8032321     0.8033407
C           4.1148325     1.6849263     1.2784340
H           3.7368643     2.6842801     1.4870658
C           1.5831633    -2.8184335    -1.0833148
H           1.2645116    -3.3954680    -1.9395201
N           2.6400891    -1.9194260    -1.1632458
C           2.7230265    -1.4174155     0.0290473
O           1.8149830    -1.9163058     0.9127464
C           1.0877072    -2.8153389     0.1787868
H           0.2982609    -3.3345423     0.6980148
16
070_C7H5N3O_4-5-12-13 (120,) energy =    -509.1985710
C           5.4463248     1.3537936     1.5056617
H           6.1543665     2.0773182     1.8959655
C           5.8418974     0.0770224     1.1117630
H           6.8800625    -0.2416523     1.1886195
N           4.9798385    -0.8270299     0.6347211
C           3.7060273    -0.4241346     0.5346990
N           3.2076237     0.7666850     0.8980285
C           4.0897761     1.6471245     1.3813898
H           3.6915652     2.6166198     1.6759646
C           1.6540035    -2.9072831    -1.0355283
H           1.4042791    -3.5787123    -1.8445621
N           2.7644704    -2.0774462    -1.0943236
C           2.7328410    -1.4190620     0.0241365
O           1.6975604    -1.7578531     0.8428848
C           1.0121767    -2.7130789     0.1444512
H           0.1379921    -3.1255894     0.6221468
16
070_C7H5N3O_4-5-12-13 (135,) energy =    -509.2008601
C           5.4475338     1.3535255     1.5013840
H           6.1532032     2.0809700     1.8884847
C           5.8611371     0.1135980     1.0170026
H           6.9122791    -0.1702434     1.0161651
N           5.0041297    -0.7962191     0.5447112
C           3.7125548    -0.4363644     0.5399959
N           3.1976774     0.7176968     0.9920856
C           4.0768285     1.6029924     1.4703231
H           3.6646451     2.5414258     1.8376495
C           1.7087382    -2.9822646    -0.9802010
H           1.5105454    -3.7298116    -1.7350375
N           2.8656771    -2.2210850    -0.9954643
C           2.7491057    -1.4352168     0.0342312
O           1.6068051    -1.6271758     0.7529829
C           0.9492266    -2.6209990     0.0867907
H           0.0030052    -2.9340175     0.4983915
16
070_C7H5N3O_4-5-12-13 (150,) energy =    -509.2027953
C           5.4444675     1.3570735     1.4998711
H           6.1469370     2.0918423     1.8787253
C           5.8695979     0.1554232     0.9342078
H           6.9280039    -0.0885495     0.8572458
N           5.0183436    -0.7625069     0.4704339
C           3.7160206    -0.4526335     0.5608870
N           3.1908822     0.6634829     1.0912620
C           4.0666242     1.5575914     1.5579090
H           3.6454167     2.4641741     1.9895662
C           1.7542996    -3.0508272    -0.9168709
H           1.5984003    -3.8643993    -1.6109816
N           2.9471709    -2.3531283    -0.8697254
C           2.7636523    -1.4579628     0.0585471
O           1.5350242    -1.5165597     0.6473896
C           0.9002623    -2.5409967     0.0103253
H          -0.1046379    -2.7620299     0.3331869
16
070_C7H5N3O_4-5-12-13 (165,) energy =    -509.2040208
C           5.4418440     1.3617345     1.4943190
H           6.1419811     2.1033369     1.8639547
C           5.8696909     0.2015213     0.8487897
H           6.9287424    -0.0002074     0.6953630
N           5.0224419    -0.7226682     0.3926698
C           3.7181281    -0.4668827     0.5803292
N           3.1910641     0.6083206     1.1882421
C           4.0642321     1.5117124     1.6408362
H           3.6406702     2.3844826     2.1354178
C           1.7841189    -3.1110105    -0.8485116
H           1.6579004    -3.9843630    -1.4725338
N           3.0027756    -2.4717283    -0.7300058
C           2.7729706    -1.4783796     0.0828800
O           1.4830898    -1.4143123     0.5220649
C           0.8633052    -2.4650870    -0.0831306
H          -0.1840511    -2.5998691     0.1357838
16
070_C7H5N3O_4-5-12-13 (180,) energy =    -509.2044381
C           5.4433656     1.3680096     1.4976467
H           6.1444718     2.1140826     1.8561362
C           5.8617746     0.2513928     0.7737169
H           6.9140281     0.0916042     0.5434154
N           5.0134245    -0.6752381     0.3256130
C           3.7174808    -0.4731758     0.6124184
N           3.1997093     0.5588523     1.2982268
C           4.0738180     1.4696282     1.7335284
H           3.6575390     2.3078888     2.2900300
C           1.7922873    -3.1563930    -0.7530002
H           1.6810970    -4.0842255    -1.2959478
N           3.0272813    -2.5701429    -0.5586499
C           2.7724813    -1.4881358     0.1236170
O           1.4478306    -1.3117491     0.3986702
C           0.8345743    -2.3866139    -0.1684697
H          -0.2374548    -2.4418403    -0.0647659
